
                   *** WAVEWATCH III Grid preprocessor ***    
               ===============================================

  Grid name : TPOS1                         


  Spectral discretization : 
 --------------------------------------------------
       Number of directions        :  24
       Directional increment (deg.):  15.0
       First direction       (deg.):   0.0
       Number of frequencies       :  32
       Frequency range        (Hz) :   0.0373-0.7159
       Increment factor            :   1.100


  Model definition :
 --------------------------------------------------
       Dry run (no calculations)   :  ---/NO
       Propagation in X-direction  :  YES/--
       Propagation in Y-direction  :  YES/--
       Refraction                  :  YES/--
       Current-induced k-shift     :  ---/NO
       Source term calc. and int.  :  YES/--


  Time steps : 
 --------------------------------------------------
       Maximum global time step      (s) : 1200.00
       Maximum CFL time step X-Y     (s) :  400.00
       Maximum CFL time step k-theta (s) :  600.00
       Minimum source term time step (s) :   10.00

  Preprocessing namelists ...
  Preprocessing namelists finished.


  Linear input (C&M-R 82) (default values) :  
 --------------------------------------------------
       CLIN                        :   80.00
       Factor for fPM in filter    :    1.00
       Factor for fh in filter     :    0.50


  Wind input (WAM 4+) (user def. values) :
 --------------------------------------------------
       minimum Charnock coeff.     :    0.0095
       betamax                     :    1.520
       power of cos. in wind input :    2.000
       z0max                       :    0.000
       zalp                        :    0.006
       Height of input wind (m)    :   10.00
       wind stress sheltering      :    0.300
       swell attenuation param.    :    1
       swell attenuation factor    :    0.660
       swell attenuation factor2   :   -0.018
       swell attenuation factor3   :    0.015
       critical Reynolds number    : 150000.0
       swell attenuation factor5   :    1.200
       swell attenuation factor6   :    0.000
       swell attenuation factor7   :    360000.000
       ratio of z0 for orb. & mean :    0.040


  Nonlinear interactions (DIA) (default values) :  
 --------------------------------------------------
       Lambda                      :    0.25
       Prop. constant              : 0.250E+08
       kd conversion factor        :    0.75
       minimum kd                  :    0.50
       shallow water constants     :    5.50  0.83 -1.25


 Dissipation (Ardhuin et al. 2010) (default values) :  
 --------------------------------------------------
       SDSC2, SDSBCK, SDSCUM       : -0.220E-04  0.000E+00 -0.403E+00
       Power of k in mean k        :    0.50


  Bottom friction  (SHOWEX)  

  Bottom friction  (SHOWEX)  (default values) :  
 --------------------------------------------------
       SEDMAPD50, SED_D50_UNIFORM        :  F 0.000200
       RIPFAC1,RIPFAC2,RIPFAC3,RIPFAC4   :  0.4000 -2.5000  1.2000  0.0500
       SIGDEPTH, BOTROUGHMIN, BOTROUGHFAC:  0.0500  0.0100  1.0000


  Surf breaking (B&J 1978) (default values) :  
 --------------------------------------------------
       alpha                       :   1.000
       gamma                       :   0.730
       Using Hmax/d ratio only.
 

  Triad interactions not defined.


  Bottom scattering not defined.


  Propagation scheme : 
 --------------------------------------------------
       Type of scheme (structured) : 3rd order UQ + GSE averaging  
                                     (default values)  
       CFLmax depth refraction     :    0.700
       Averaging area factor Cg    :    1.50
       Averaging area factor theta :    1.50
 

  Ice scattering not defined.


  Shoreline reflection     (default values) :  
 --------------------------------------------------

  Spectral output on full grid (default values) :  
 --------------------------------------------------
       Second order pressure at K=0:   0   1  15
       Spectrum of Uss             :   0   1  32
       Frequency spectrum          :   0   1  32
       Partions of Uss             :   0   1
       Partition wavenumber # 1   :  0.063

  Miscellaneous (user def. values) :
 --------------------------------------------------
       Ice concentration cut-offs  :    0.00  0.00
       Wind input reduction factor in presence of 
         ice :  1.00
         (0.0==> no reduction and 1.0==> no wind
         input with 100% ice cover)
       Space-time extremes DX-Y set to default 1000 m
       Space-time extremes Dt set to default 1200 s
       Compression of track output  :   T

    Dynamic source term integration scheme :
       Xp                      (-) :    0.150
       Xr                      (-) :    0.100
       Xfilt                   (-) :    0.050

    Wave field partitioning :
       Levels                  (-) :  100
       Minimum wave height     (m) :    0.050
       Wind area multiplier    (-) :    1.700
       Cut-off wind sea fract. (-) :    0.333
       Combine wind seas           :  YES/--
       Number of swells in fld out :    5
       Partitioning method         :  WW3 default                                  

    Miche-style limiting wave height :
       Hs,max/d factor         (-) :    1.600
       Hrms,max/d factor       (-) :    1.131
       Limiter activated           :  YES/--
 

  Equivalent namelists ...

  &SLN1 CLIN =  80.0, RFPM =  1.00, RFHF =  0.50 /
  &SIN4 ZWND = 10.0, ALPHA0 = 0.00950, Z0MAX = 0.00000, BETAMAX = 1.52000,
        SINTHP = 2.00000, ZALP = 0.00600, TAUWSHELTER = 0.30000, SWELLFPAR = 1,
        SWELLF = 0.66000, SWELLF2 =-0.01800, SWELLF3 = 0.01500, SWELLF4 = 150000.0,
        SWELLF5 = 1.20000, SWELLF6 = 0.00000, SWELLF7 =   360000.00, Z0RAT = 0.04000, SINBR = 0.00000  /
  &SNL1 LAMBDA =  0.250, NLPROP = 0.250E+08, KDCONV =  0.750, KDMIN =  0.500,
        SNLCS1 =  5.500, SNLCS2 =  0.833, SNLCS3 =  -1.250 /
  &SDS4 SDSC1 =  0.0000E+00, SDSC2 = -0.2200E-04, SDSCUM = -0.40, 
        SDSC4 =  1.00, SDSC5 =  0.0000E+00, SDSC6 =  0.3000E+00,
        WNMEANP =0.50, FXPM3 =4.00, FXFM3 =2.50, FXFMAGE = 0.000, FXINCUT = 0.000, FXDSCUT = 0.000, 
        SDSBINT =  0.3000E+00, SDSBCK =  0.0000E+00, SDSABK = 1.500, SDSPBK = 4.000, 
        SDSHCK = 1.50, SDSBR =   0.9000E-03, SDSSTRAIN = 0.0, SDSSTRAINA = 0.0, SDSSTRAIN2 =  0.0, 
        SDSBR2 = 0.80, SDSP = 2.00, SDSISO = 2, SDSCOS =2.0, SDSDTH = 80.0, 
        SDSBRF1 =  0.50, SDSBRFDF = 0, 
        SDSBM0 =  1.00, SDSBM1 = 0.00, SDSBM2 = 0.00, SDSBM3 = 0.00, SDSBM4 = 0.00, 
        WHITECAPWIDTH = 0.30, SDSLFGEN =  0.00, SDSHFGEN =  0.00 /
  &SBT4 SEDMAPD50 =  F, SED_D50_UNIFORM =0.000200,
        RIPFAC1 =  0.4000, RIPFAC2 = -2.5000, RIPFAC3 =  1.2000, RIPFAC4 =  0.0500,
        SIGDEPTH =  0.0500, BOTROUGHMIN =  0.0100, BOTROUGHFAC = 1.0 /
  &SDB1 BJALFA =  1.000, BJGAM =  0.730, BJFLAG = .TRUE. /
  &PRO3 CFLTM = 0.70, WDTHCG = 1.50, WDTHTH = 1.50 /
  &UNST UGOBCAUTO =  T, UGOBCDEPTH = -10.000, UGOBCFILE=unset,
,  EXPFSN =  T,EXPFSPSI =  F,  EXPFSFCT =  F,IMPFSN =  F,EXPTOTAL=  F,  IMPTOTAL=  F,IMPREFRACTION=  F,  IMPFREQSHIFT=  F, IMPSOURCE=  F,  SETUP_APPLY_WLV=  F,  JGS_TERMINATE_MAXITER=  T,  JGS_TERMINATE_DIFFERENCE=  T,  JGS_TERMINATE_NORM=  F,  JGS_LIMITER=  F,  JGS_USE_JACOBI=  T,  JGS_BLOCK_GAUSS_SEIDEL=  T,  JGS_MAXITER=  100,  JGS_PMIN=   1.000,  JGS_DIFF_THR=   0.000,  JGS_NORM_THR=   0.000,  JGS_NLEVEL=  0,  JGS_SOURCE_NONLINEAR=  F

  &OUTS P2SF  = 0, I1P2SF = 1, I2P2SF = 15,
        US3D  = 0, I1US3D =  1, I2US3D = 32,
        USSP  = 0, IUSSP  =  1,
        E3D   = 0, I1E3D  =  1, I2E3D  = 32,
        TH1MF = 0, I1TH1M =  1, I2TH1M = 32,
        STH1MF= 0, I1STH1M=  1, I2STH1M= 32,
        TH2MF = 0, I1TH2M =  1, I2TH2M = 32,
        STH2MF= 0, I1STH2M=  1, I2STH2M= 32 /
  &REF1 REFCOAST = 0.00, REFFREQ = 0.00, REFSLOPE =0.220, REFMAP = 0.0, REFMAPD = 0.0, REFSUBGRID = 0.00,
        REFRMAX= 1.00, REFFREQPOW = 2.00, REFICEBERG = 0.00, REFCOSP_STRAIGHT = 4.0 /
  &REF1 REFCOAST = 0.00, REFFREQ =
  &MISC CICE0 = 0.000, CICEN = 0.000, LICE =      0.0, PMOVE = 0.500,
        XSEED = 1.000, FLAGTR = 0, XP = 0.150, XR = 0.100, XFILT = 0.050
        IHM =  100, HSPM = 0.050, WSM = 1.700, WSC = 0.333, FLC = .TRUE.
        NOSW =  5, FMICHE = 1.600, RWNDC = 1.000, WCOR1 = 99.00, WCOR2 =  0.00,
        FACBERG = 1.0, GSHIFT =   0.000E+00, STDX =   -1.00, STDY =  -1.00,
        STDT =   -1.00, ICEHMIN = 0.20, ICEHFAC = 1.00,
        ICEHINIT = 0.50, ICEDISP =  F, ICEHDISP = 0.60,
        ICESLN =   1.00, ICEWIND =   1.00, ICESNL =   1.00, ICESDS =  1.00,
        ICEDDISP = 80.00, ICEFDISP =  2.00, NOLEAP =   F , TRCKCMPR =   T,
        BTBET  =   1.20 /

  Equivalent namelists finished.


  The spatial grid: 
 --------------------------------------------------

       Grid type                   : curvilinear
       Coordinate system           : spherical
       Index closure type          : none
       Dimensions                  :    699     133

       X-coordinate unit           :    21
       Scale factor                :    1.0000
       Add offset                  :  0.0000E+00
       Layout indicator            :     1
       Format indicator            :     1
       File name                   : ../DATA/tpos/tpos1/tpos1_xcoord.dat

       Y-coordinate unit           :    22
       Scale factor                :    1.0000
       Add offset                  :  0.0000E+00
       Layout indicator            :     1
       Format indicator            :     1
       File name                   : ../DATA/tpos/tpos1/tpos1_ycoord.dat

       Bottom level unit           :    50
       Limiting depth          (m) :   -0.10
       Minimum depth           (m) :    2.50
       Scale factor                :   -1.00
       Layout indicator            :     1
       Format indicator            :     1
       File name                   : ../DATA/tpos/tpos1/tpos1_bathy.bot

       Sub-grid information        : Not available.

       Mask information            : From file.
       Mask unit                   :    60
       Layout indicator            :     1
       Format indicator            :     1
       File name                   : ../DATA/tpos/tpos1/tpos1_mapsta.inp                         

  Input boundary points : 
 --------------------------------------------------
       Number of boundary points   :  1352

         Nr.|   IX  |   IY  |  Long.  |   Lat.  
       -----|-------|-------|---------|---------
          1 |    72 |     1 |  147.87 |  -19.79
          2 |    73 |     1 |  148.09 |  -19.79
          3 |    74 |     1 |  148.32 |  -19.79
          4 |    75 |     1 |  148.54 |  -19.79
          5 |    76 |     1 |  148.77 |  -19.79
          6 |    77 |     1 |  149.00 |  -19.79
          7 |    78 |     1 |  149.22 |  -19.79
          8 |    79 |     1 |  149.45 |  -19.79
          9 |    80 |     1 |  149.67 |  -19.79
         10 |    81 |     1 |  149.90 |  -19.79
         11 |    82 |     1 |  150.13 |  -19.79
         12 |    83 |     1 |  150.35 |  -19.79
         13 |    84 |     1 |  150.58 |  -19.79
         14 |    85 |     1 |  150.80 |  -19.79
         15 |    86 |     1 |  151.03 |  -19.79
         16 |    87 |     1 |  151.25 |  -19.79
         17 |    88 |     1 |  151.48 |  -19.79
         18 |    89 |     1 |  151.71 |  -19.79
         19 |    90 |     1 |  151.93 |  -19.79
         20 |    91 |     1 |  152.16 |  -19.79
         21 |    92 |     1 |  152.38 |  -19.79
         22 |    93 |     1 |  152.61 |  -19.79
         23 |    94 |     1 |  152.84 |  -19.79
         24 |    95 |     1 |  153.06 |  -19.79
         25 |    96 |     1 |  153.29 |  -19.79
         26 |    97 |     1 |  153.51 |  -19.79
         27 |    98 |     1 |  153.74 |  -19.79
         28 |    99 |     1 |  153.96 |  -19.79
         29 |   100 |     1 |  154.19 |  -19.79
         30 |   101 |     1 |  154.42 |  -19.79
         31 |   102 |     1 |  154.64 |  -19.79
         32 |   103 |     1 |  154.87 |  -19.79
         33 |   104 |     1 |  155.09 |  -19.79
         34 |   105 |     1 |  155.32 |  -19.79
         35 |   106 |     1 |  155.55 |  -19.79
         36 |   107 |     1 |  155.77 |  -19.79
         37 |   108 |     1 |  156.00 |  -19.79
         38 |   109 |     1 |  156.22 |  -19.79
         39 |   110 |     1 |  156.45 |  -19.79
         40 |   111 |     1 |  156.67 |  -19.79
         41 |   112 |     1 |  156.90 |  -19.79
         42 |   113 |     1 |  157.13 |  -19.79
         43 |   114 |     1 |  157.35 |  -19.79
         44 |   115 |     1 |  157.58 |  -19.79
         45 |   116 |     1 |  157.80 |  -19.79
         46 |   117 |     1 |  158.03 |  -19.79
         47 |   118 |     1 |  158.25 |  -19.79
         48 |   119 |     1 |  158.48 |  -19.79
         49 |   120 |     1 |  158.71 |  -19.79
         50 |   121 |     1 |  158.93 |  -19.79
         51 |   122 |     1 |  159.16 |  -19.79
         52 |   123 |     1 |  159.38 |  -19.79
         53 |   124 |     1 |  159.61 |  -19.79
         54 |   125 |     1 |  159.84 |  -19.79
         55 |   126 |     1 |  160.06 |  -19.79
         56 |   127 |     1 |  160.29 |  -19.79
         57 |   128 |     1 |  160.51 |  -19.79
         58 |   129 |     1 |  160.74 |  -19.79
         59 |   130 |     1 |  160.96 |  -19.79
         60 |   131 |     1 |  161.19 |  -19.79
         61 |   132 |     1 |  161.42 |  -19.79
         62 |   133 |     1 |  161.64 |  -19.79
         63 |   134 |     1 |  161.87 |  -19.79
         64 |   135 |     1 |  162.09 |  -19.79
         65 |   136 |     1 |  162.32 |  -19.79
         66 |   137 |     1 |  162.55 |  -19.79
         67 |   138 |     1 |  162.77 |  -19.79
         68 |   139 |     1 |  163.00 |  -19.79
         69 |   140 |     1 |  163.22 |  -19.79
         70 |   141 |     1 |  163.45 |  -19.79
         71 |   142 |     1 |  163.67 |  -19.79
         72 |   143 |     1 |  163.90 |  -19.79
         73 |   144 |     1 |  164.13 |  -19.79
         74 |   145 |     1 |  164.35 |  -19.79
         75 |   146 |     1 |  164.58 |  -19.79
         76 |   147 |     1 |  164.80 |  -19.79
         77 |   148 |     1 |  165.03 |  -19.79
         78 |   149 |     1 |  165.26 |  -19.79
         79 |   150 |     1 |  165.48 |  -19.79
         80 |   151 |     1 |  165.71 |  -19.79
         81 |   152 |     1 |  165.93 |  -19.79
         82 |   153 |     1 |  166.16 |  -19.79
         83 |   154 |     1 |  166.38 |  -19.79
         84 |   155 |     1 |  166.61 |  -19.79
         85 |   156 |     1 |  166.84 |  -19.79
         86 |   157 |     1 |  167.06 |  -19.79
         87 |   158 |     1 |  167.29 |  -19.79
         88 |   159 |     1 |  167.51 |  -19.79
         89 |   160 |     1 |  167.74 |  -19.79
         90 |   161 |     1 |  167.97 |  -19.79
         91 |   162 |     1 |  168.19 |  -19.79
         92 |   163 |     1 |  168.42 |  -19.79
         93 |   164 |     1 |  168.64 |  -19.79
         94 |   165 |     1 |  168.87 |  -19.79
         95 |   166 |     1 |  169.09 |  -19.79
         96 |   167 |     1 |  169.32 |  -19.79
         97 |   168 |     1 |  169.55 |  -19.79
         98 |   169 |     1 |  169.77 |  -19.79
         99 |   170 |     1 |  170.00 |  -19.79
        100 |   171 |     1 |  170.22 |  -19.79
        101 |   172 |     1 |  170.45 |  -19.79
        102 |   173 |     1 |  170.68 |  -19.79
        103 |   174 |     1 |  170.90 |  -19.79
        104 |   175 |     1 |  171.13 |  -19.79
        105 |   176 |     1 |  171.35 |  -19.79
        106 |   177 |     1 |  171.58 |  -19.79
        107 |   178 |     1 |  171.80 |  -19.79
        108 |   179 |     1 |  172.03 |  -19.79
        109 |   180 |     1 |  172.26 |  -19.79
        110 |   181 |     1 |  172.48 |  -19.79
        111 |   182 |     1 |  172.71 |  -19.79
        112 |   183 |     1 |  172.93 |  -19.79
        113 |   184 |     1 |  173.16 |  -19.79
        114 |   185 |     1 |  173.39 |  -19.79
        115 |   186 |     1 |  173.61 |  -19.79
        116 |   187 |     1 |  173.84 |  -19.79
        117 |   188 |     1 |  174.06 |  -19.79
        118 |   189 |     1 |  174.29 |  -19.79
        119 |   190 |     1 |  174.51 |  -19.79
        120 |   191 |     1 |  174.74 |  -19.79
        121 |   192 |     1 |  174.97 |  -19.79
        122 |   193 |     1 |  175.19 |  -19.79
        123 |   194 |     1 |  175.42 |  -19.79
        124 |   195 |     1 |  175.64 |  -19.79
        125 |   196 |     1 |  175.87 |  -19.79
        126 |   197 |     1 |  176.10 |  -19.79
        127 |   198 |     1 |  176.32 |  -19.79
        128 |   199 |     1 |  176.55 |  -19.79
        129 |   200 |     1 |  176.77 |  -19.79
        130 |   201 |     1 |  177.00 |  -19.79
        131 |   202 |     1 |  177.22 |  -19.79
        132 |   203 |     1 |  177.45 |  -19.79
        133 |   204 |     1 |  177.68 |  -19.79
        134 |   205 |     1 |  177.90 |  -19.79
        135 |   206 |     1 |  178.13 |  -19.79
        136 |   207 |     1 |  178.35 |  -19.79
        137 |   208 |     1 |  178.58 |  -19.79
        138 |   209 |     1 |  178.80 |  -19.79
        139 |   210 |     1 |  179.03 |  -19.79
        140 |   211 |     1 |  179.26 |  -19.79
        141 |   212 |     1 |  179.48 |  -19.79
        142 |   213 |     1 |  179.71 |  -19.79
        143 |   214 |     1 |  179.93 |  -19.79
        144 |   215 |     1 |  180.16 |  -19.79
        145 |   216 |     1 |  180.39 |  -19.79
        146 |   217 |     1 |  180.61 |  -19.79
        147 |   218 |     1 |  180.84 |  -19.79
        148 |   219 |     1 |  181.06 |  -19.79
        149 |   220 |     1 |  181.29 |  -19.79
        150 |   221 |     1 |  181.51 |  -19.79
        151 |   222 |     1 |  181.74 |  -19.79
        152 |   223 |     1 |  181.97 |  -19.79
        153 |   224 |     1 |  182.19 |  -19.79
        154 |   225 |     1 |  182.42 |  -19.79
        155 |   226 |     1 |  182.64 |  -19.79
        156 |   227 |     1 |  182.87 |  -19.79
        157 |   228 |     1 |  183.10 |  -19.79
        158 |   229 |     1 |  183.32 |  -19.79
        159 |   230 |     1 |  183.55 |  -19.79
        160 |   231 |     1 |  183.77 |  -19.79
        161 |   232 |     1 |  184.00 |  -19.79
        162 |   233 |     1 |  184.22 |  -19.79
        163 |   234 |     1 |  184.45 |  -19.79
        164 |   235 |     1 |  184.68 |  -19.79
        165 |   236 |     1 |  184.90 |  -19.79
        166 |   237 |     1 |  185.13 |  -19.79
        167 |   238 |     1 |  185.35 |  -19.79
        168 |   239 |     1 |  185.58 |  -19.79
        169 |   240 |     1 |  185.81 |  -19.79
        170 |   241 |     1 |  186.03 |  -19.79
        171 |   242 |     1 |  186.26 |  -19.79
        172 |   243 |     1 |  186.48 |  -19.79
        173 |   244 |     1 |  186.71 |  -19.79
        174 |   245 |     1 |  186.93 |  -19.79
        175 |   246 |     1 |  187.16 |  -19.79
        176 |   247 |     1 |  187.39 |  -19.79
        177 |   248 |     1 |  187.61 |  -19.79
        178 |   249 |     1 |  187.84 |  -19.79
        179 |   250 |     1 |  188.06 |  -19.79
        180 |   251 |     1 |  188.29 |  -19.79
        181 |   252 |     1 |  188.52 |  -19.79
        182 |   253 |     1 |  188.74 |  -19.79
        183 |   254 |     1 |  188.97 |  -19.79
        184 |   255 |     1 |  189.19 |  -19.79
        185 |   256 |     1 |  189.42 |  -19.79
        186 |   257 |     1 |  189.64 |  -19.79
        187 |   258 |     1 |  189.87 |  -19.79
        188 |   259 |     1 |  190.10 |  -19.79
        189 |   260 |     1 |  190.32 |  -19.79
        190 |   261 |     1 |  190.55 |  -19.79
        191 |   262 |     1 |  190.77 |  -19.79
        192 |   263 |     1 |  191.00 |  -19.79
        193 |   264 |     1 |  191.23 |  -19.79
        194 |   265 |     1 |  191.45 |  -19.79
        195 |   266 |     1 |  191.68 |  -19.79
        196 |   267 |     1 |  191.90 |  -19.79
        197 |   268 |     1 |  192.13 |  -19.79
        198 |   269 |     1 |  192.35 |  -19.79
        199 |   270 |     1 |  192.58 |  -19.79
        200 |   271 |     1 |  192.81 |  -19.79
        201 |   272 |     1 |  193.03 |  -19.79
        202 |   273 |     1 |  193.26 |  -19.79
        203 |   274 |     1 |  193.48 |  -19.79
        204 |   275 |     1 |  193.71 |  -19.79
        205 |   276 |     1 |  193.94 |  -19.79
        206 |   277 |     1 |  194.16 |  -19.79
        207 |   278 |     1 |  194.39 |  -19.79
        208 |   279 |     1 |  194.61 |  -19.79
        209 |   280 |     1 |  194.84 |  -19.79
        210 |   281 |     1 |  195.06 |  -19.79
        211 |   282 |     1 |  195.29 |  -19.79
        212 |   283 |     1 |  195.52 |  -19.79
        213 |   284 |     1 |  195.74 |  -19.79
        214 |   285 |     1 |  195.97 |  -19.79
        215 |   286 |     1 |  196.19 |  -19.79
        216 |   287 |     1 |  196.42 |  -19.79
        217 |   288 |     1 |  196.64 |  -19.79
        218 |   289 |     1 |  196.87 |  -19.79
        219 |   290 |     1 |  197.10 |  -19.79
        220 |   291 |     1 |  197.32 |  -19.79
        221 |   292 |     1 |  197.55 |  -19.79
        222 |   293 |     1 |  197.77 |  -19.79
        223 |   294 |     1 |  198.00 |  -19.79
        224 |   295 |     1 |  198.23 |  -19.79
        225 |   296 |     1 |  198.45 |  -19.79
        226 |   297 |     1 |  198.68 |  -19.79
        227 |   298 |     1 |  198.90 |  -19.79
        228 |   299 |     1 |  199.13 |  -19.79
        229 |   300 |     1 |  199.35 |  -19.79
        230 |   301 |     1 |  199.58 |  -19.79
        231 |   302 |     1 |  199.81 |  -19.79
        232 |   303 |     1 |  200.03 |  -19.79
        233 |   304 |     1 |  200.26 |  -19.79
        234 |   305 |     1 |  200.48 |  -19.79
        235 |   306 |     1 |  200.71 |  -19.79
        236 |   307 |     1 |  200.94 |  -19.79
        237 |   308 |     1 |  201.16 |  -19.79
        238 |   309 |     1 |  201.39 |  -19.79
        239 |   310 |     1 |  201.61 |  -19.79
        240 |   311 |     1 |  201.84 |  -19.79
        241 |   312 |     1 |  202.06 |  -19.79
        242 |   313 |     1 |  202.29 |  -19.79
        243 |   314 |     1 |  202.52 |  -19.79
        244 |   315 |     1 |  202.74 |  -19.79
        245 |   316 |     1 |  202.97 |  -19.79
        246 |   317 |     1 |  203.19 |  -19.79
        247 |   318 |     1 |  203.42 |  -19.79
        248 |   319 |     1 |  203.65 |  -19.79
        249 |   320 |     1 |  203.87 |  -19.79
        250 |   321 |     1 |  204.10 |  -19.79
        251 |   322 |     1 |  204.32 |  -19.79
        252 |   323 |     1 |  204.55 |  -19.79
        253 |   324 |     1 |  204.77 |  -19.79
        254 |   325 |     1 |  205.00 |  -19.79
        255 |   326 |     1 |  205.23 |  -19.79
        256 |   327 |     1 |  205.45 |  -19.79
        257 |   328 |     1 |  205.68 |  -19.79
        258 |   329 |     1 |  205.90 |  -19.79
        259 |   330 |     1 |  206.13 |  -19.79
        260 |   331 |     1 |  206.36 |  -19.79
        261 |   332 |     1 |  206.58 |  -19.79
        262 |   333 |     1 |  206.81 |  -19.79
        263 |   334 |     1 |  207.03 |  -19.79
        264 |   335 |     1 |  207.26 |  -19.79
        265 |   336 |     1 |  207.48 |  -19.79
        266 |   337 |     1 |  207.71 |  -19.79
        267 |   338 |     1 |  207.94 |  -19.79
        268 |   339 |     1 |  208.16 |  -19.79
        269 |   340 |     1 |  208.39 |  -19.79
        270 |   341 |     1 |  208.61 |  -19.79
        271 |   342 |     1 |  208.84 |  -19.79
        272 |   343 |     1 |  209.07 |  -19.79
        273 |   344 |     1 |  209.29 |  -19.79
        274 |   345 |     1 |  209.52 |  -19.79
        275 |   346 |     1 |  209.74 |  -19.79
        276 |   347 |     1 |  209.97 |  -19.79
        277 |   348 |     1 |  210.19 |  -19.79
        278 |   349 |     1 |  210.42 |  -19.79
        279 |   350 |     1 |  210.65 |  -19.79
        280 |   351 |     1 |  210.87 |  -19.79
        281 |   352 |     1 |  211.10 |  -19.79
        282 |   353 |     1 |  211.32 |  -19.79
        283 |   354 |     1 |  211.55 |  -19.79
        284 |   355 |     1 |  211.78 |  -19.79
        285 |   356 |     1 |  212.00 |  -19.79
        286 |   357 |     1 |  212.23 |  -19.79
        287 |   358 |     1 |  212.45 |  -19.79
        288 |   359 |     1 |  212.68 |  -19.79
        289 |   360 |     1 |  212.90 |  -19.79
        290 |   361 |     1 |  213.13 |  -19.79
        291 |   362 |     1 |  213.36 |  -19.79
        292 |   363 |     1 |  213.58 |  -19.79
        293 |   364 |     1 |  213.81 |  -19.79
        294 |   365 |     1 |  214.03 |  -19.79
        295 |   366 |     1 |  214.26 |  -19.79
        296 |   367 |     1 |  214.49 |  -19.79
        297 |   368 |     1 |  214.71 |  -19.79
        298 |   369 |     1 |  214.94 |  -19.79
        299 |   370 |     1 |  215.16 |  -19.79
        300 |   371 |     1 |  215.39 |  -19.79
        301 |   372 |     1 |  215.61 |  -19.79
        302 |   373 |     1 |  215.84 |  -19.79
        303 |   374 |     1 |  216.07 |  -19.79
        304 |   375 |     1 |  216.29 |  -19.79
        305 |   376 |     1 |  216.52 |  -19.79
        306 |   377 |     1 |  216.74 |  -19.79
        307 |   378 |     1 |  216.97 |  -19.79
        308 |   379 |     1 |  217.19 |  -19.79
        309 |   380 |     1 |  217.42 |  -19.79
        310 |   381 |     1 |  217.65 |  -19.79
        311 |   382 |     1 |  217.87 |  -19.79
        312 |   383 |     1 |  218.10 |  -19.79
        313 |   384 |     1 |  218.32 |  -19.79
        314 |   385 |     1 |  218.55 |  -19.79
        315 |   386 |     1 |  218.78 |  -19.79
        316 |   387 |     1 |  219.00 |  -19.79
        317 |   388 |     1 |  219.23 |  -19.79
        318 |   389 |     1 |  219.45 |  -19.79
        319 |   390 |     1 |  219.68 |  -19.79
        320 |   391 |     1 |  219.90 |  -19.79
        321 |   392 |     1 |  220.13 |  -19.79
        322 |   393 |     1 |  220.36 |  -19.79
        323 |   394 |     1 |  220.58 |  -19.79
        324 |   395 |     1 |  220.81 |  -19.79
        325 |   396 |     1 |  221.03 |  -19.79
        326 |   397 |     1 |  221.26 |  -19.79
        327 |   398 |     1 |  221.49 |  -19.79
        328 |   399 |     1 |  221.71 |  -19.79
        329 |   400 |     1 |  221.94 |  -19.79
        330 |   401 |     1 |  222.16 |  -19.79
        331 |   402 |     1 |  222.39 |  -19.79
        332 |   403 |     1 |  222.61 |  -19.79
        333 |   404 |     1 |  222.84 |  -19.79
        334 |   405 |     1 |  223.07 |  -19.79
        335 |   406 |     1 |  223.29 |  -19.79
        336 |   407 |     1 |  223.52 |  -19.79
        337 |   408 |     1 |  223.74 |  -19.79
        338 |   409 |     1 |  223.97 |  -19.79
        339 |   410 |     1 |  224.20 |  -19.79
        340 |   411 |     1 |  224.42 |  -19.79
        341 |   412 |     1 |  224.65 |  -19.79
        342 |   413 |     1 |  224.87 |  -19.79
        343 |   414 |     1 |  225.10 |  -19.79
        344 |   415 |     1 |  225.32 |  -19.79
        345 |   416 |     1 |  225.55 |  -19.79
        346 |   417 |     1 |  225.78 |  -19.79
        347 |   418 |     1 |  226.00 |  -19.79
        348 |   419 |     1 |  226.23 |  -19.79
        349 |   420 |     1 |  226.45 |  -19.79
        350 |   421 |     1 |  226.68 |  -19.79
        351 |   422 |     1 |  226.91 |  -19.79
        352 |   423 |     1 |  227.13 |  -19.79
        353 |   424 |     1 |  227.36 |  -19.79
        354 |   425 |     1 |  227.58 |  -19.79
        355 |   426 |     1 |  227.81 |  -19.79
        356 |   427 |     1 |  228.03 |  -19.79
        357 |   428 |     1 |  228.26 |  -19.79
        358 |   429 |     1 |  228.49 |  -19.79
        359 |   430 |     1 |  228.71 |  -19.79
        360 |   431 |     1 |  228.94 |  -19.79
        361 |   432 |     1 |  229.16 |  -19.79
        362 |   433 |     1 |  229.39 |  -19.79
        363 |   434 |     1 |  229.62 |  -19.79
        364 |   435 |     1 |  229.84 |  -19.79
        365 |   436 |     1 |  230.07 |  -19.79
        366 |   437 |     1 |  230.29 |  -19.79
        367 |   438 |     1 |  230.52 |  -19.79
        368 |   439 |     1 |  230.74 |  -19.79
        369 |   440 |     1 |  230.97 |  -19.79
        370 |   441 |     1 |  231.20 |  -19.79
        371 |   442 |     1 |  231.42 |  -19.79
        372 |   443 |     1 |  231.65 |  -19.79
        373 |   444 |     1 |  231.87 |  -19.79
        374 |   445 |     1 |  232.10 |  -19.79
        375 |   446 |     1 |  232.33 |  -19.79
        376 |   447 |     1 |  232.55 |  -19.79
        377 |   448 |     1 |  232.78 |  -19.79
        378 |   449 |     1 |  233.00 |  -19.79
        379 |   450 |     1 |  233.23 |  -19.79
        380 |   451 |     1 |  233.45 |  -19.79
        381 |   452 |     1 |  233.68 |  -19.79
        382 |   453 |     1 |  233.91 |  -19.79
        383 |   454 |     1 |  234.13 |  -19.79
        384 |   455 |     1 |  234.36 |  -19.79
        385 |   456 |     1 |  234.58 |  -19.79
        386 |   457 |     1 |  234.81 |  -19.79
        387 |   458 |     1 |  235.03 |  -19.79
        388 |   459 |     1 |  235.26 |  -19.79
        389 |   460 |     1 |  235.49 |  -19.79
        390 |   461 |     1 |  235.71 |  -19.79
        391 |   462 |     1 |  235.94 |  -19.79
        392 |   463 |     1 |  236.16 |  -19.79
        393 |   464 |     1 |  236.39 |  -19.79
        394 |   465 |     1 |  236.62 |  -19.79
        395 |   466 |     1 |  236.84 |  -19.79
        396 |   467 |     1 |  237.07 |  -19.79
        397 |   468 |     1 |  237.29 |  -19.79
        398 |   469 |     1 |  237.52 |  -19.79
        399 |   470 |     1 |  237.74 |  -19.79
        400 |   471 |     1 |  237.97 |  -19.79
        401 |   472 |     1 |  238.20 |  -19.79
        402 |   473 |     1 |  238.42 |  -19.79
        403 |   474 |     1 |  238.65 |  -19.79
        404 |   475 |     1 |  238.87 |  -19.79
        405 |   476 |     1 |  239.10 |  -19.79
        406 |   477 |     1 |  239.33 |  -19.79
        407 |   478 |     1 |  239.55 |  -19.79
        408 |   479 |     1 |  239.78 |  -19.79
        409 |   480 |     1 |  240.00 |  -19.79
        410 |   481 |     1 |  240.23 |  -19.79
        411 |   482 |     1 |  240.45 |  -19.79
        412 |   483 |     1 |  240.68 |  -19.79
        413 |   484 |     1 |  240.91 |  -19.79
        414 |   485 |     1 |  241.13 |  -19.79
        415 |   486 |     1 |  241.36 |  -19.79
        416 |   487 |     1 |  241.58 |  -19.79
        417 |   488 |     1 |  241.81 |  -19.79
        418 |   489 |     1 |  242.04 |  -19.79
        419 |   490 |     1 |  242.26 |  -19.79
        420 |   491 |     1 |  242.49 |  -19.79
        421 |   492 |     1 |  242.71 |  -19.79
        422 |   493 |     1 |  242.94 |  -19.79
        423 |   494 |     1 |  243.16 |  -19.79
        424 |   495 |     1 |  243.39 |  -19.79
        425 |   496 |     1 |  243.62 |  -19.79
        426 |   497 |     1 |  243.84 |  -19.79
        427 |   498 |     1 |  244.07 |  -19.79
        428 |   499 |     1 |  244.29 |  -19.79
        429 |   500 |     1 |  244.52 |  -19.79
        430 |   501 |     1 |  244.75 |  -19.79
        431 |   502 |     1 |  244.97 |  -19.79
        432 |   503 |     1 |  245.20 |  -19.79
        433 |   504 |     1 |  245.42 |  -19.79
        434 |   505 |     1 |  245.65 |  -19.79
        435 |   506 |     1 |  245.87 |  -19.79
        436 |   507 |     1 |  246.10 |  -19.79
        437 |   508 |     1 |  246.33 |  -19.79
        438 |   509 |     1 |  246.55 |  -19.79
        439 |   510 |     1 |  246.78 |  -19.79
        440 |   511 |     1 |  247.00 |  -19.79
        441 |   512 |     1 |  247.23 |  -19.79
        442 |   513 |     1 |  247.46 |  -19.79
        443 |   514 |     1 |  247.68 |  -19.79
        444 |   515 |     1 |  247.91 |  -19.79
        445 |   516 |     1 |  248.13 |  -19.79
        446 |   517 |     1 |  248.36 |  -19.79
        447 |   518 |     1 |  248.58 |  -19.79
        448 |   519 |     1 |  248.81 |  -19.79
        449 |   520 |     1 |  249.04 |  -19.79
        450 |   521 |     1 |  249.26 |  -19.79
        451 |   522 |     1 |  249.49 |  -19.79
        452 |   523 |     1 |  249.71 |  -19.79
        453 |   524 |     1 |  249.94 |  -19.79
        454 |   525 |     1 |  250.17 |  -19.79
        455 |   526 |     1 |  250.39 |  -19.79
        456 |   527 |     1 |  250.62 |  -19.79
        457 |   528 |     1 |  250.84 |  -19.79
        458 |   529 |     1 |  251.07 |  -19.79
        459 |   530 |     1 |  251.29 |  -19.79
        460 |   531 |     1 |  251.52 |  -19.79
        461 |   532 |     1 |  251.75 |  -19.79
        462 |   533 |     1 |  251.97 |  -19.79
        463 |   534 |     1 |  252.20 |  -19.79
        464 |   535 |     1 |  252.42 |  -19.79
        465 |   536 |     1 |  252.65 |  -19.79
        466 |   537 |     1 |  252.88 |  -19.79
        467 |   538 |     1 |  253.10 |  -19.79
        468 |   539 |     1 |  253.33 |  -19.79
        469 |   540 |     1 |  253.55 |  -19.79
        470 |   541 |     1 |  253.78 |  -19.79
        471 |   542 |     1 |  254.00 |  -19.79
        472 |   543 |     1 |  254.23 |  -19.79
        473 |   544 |     1 |  254.46 |  -19.79
        474 |   545 |     1 |  254.68 |  -19.79
        475 |   546 |     1 |  254.91 |  -19.79
        476 |   547 |     1 |  255.13 |  -19.79
        477 |   548 |     1 |  255.36 |  -19.79
        478 |   549 |     1 |  255.58 |  -19.79
        479 |   550 |     1 |  255.81 |  -19.79
        480 |   551 |     1 |  256.04 |  -19.79
        481 |   552 |     1 |  256.26 |  -19.79
        482 |   553 |     1 |  256.49 |  -19.79
        483 |   554 |     1 |  256.71 |  -19.79
        484 |   555 |     1 |  256.94 |  -19.79
        485 |   556 |     1 |  257.17 |  -19.79
        486 |   557 |     1 |  257.39 |  -19.79
        487 |   558 |     1 |  257.62 |  -19.79
        488 |   559 |     1 |  257.84 |  -19.79
        489 |   560 |     1 |  258.07 |  -19.79
        490 |   561 |     1 |  258.29 |  -19.79
        491 |   562 |     1 |  258.52 |  -19.79
        492 |   563 |     1 |  258.75 |  -19.79
        493 |   564 |     1 |  258.97 |  -19.79
        494 |   565 |     1 |  259.20 |  -19.79
        495 |   566 |     1 |  259.42 |  -19.79
        496 |   567 |     1 |  259.65 |  -19.79
        497 |   568 |     1 |  259.88 |  -19.79
        498 |   569 |     1 |  260.10 |  -19.79
        499 |   570 |     1 |  260.33 |  -19.79
        500 |   571 |     1 |  260.55 |  -19.79
        501 |   572 |     1 |  260.78 |  -19.79
        502 |   573 |     1 |  261.00 |  -19.79
        503 |   574 |     1 |  261.23 |  -19.79
        504 |   575 |     1 |  261.46 |  -19.79
        505 |   576 |     1 |  261.68 |  -19.79
        506 |   577 |     1 |  261.91 |  -19.79
        507 |   578 |     1 |  262.13 |  -19.79
        508 |   579 |     1 |  262.36 |  -19.79
        509 |   580 |     1 |  262.59 |  -19.79
        510 |   581 |     1 |  262.81 |  -19.79
        511 |   582 |     1 |  263.04 |  -19.79
        512 |   583 |     1 |  263.26 |  -19.79
        513 |   584 |     1 |  263.49 |  -19.79
        514 |   585 |     1 |  263.71 |  -19.79
        515 |   586 |     1 |  263.94 |  -19.79
        516 |   587 |     1 |  264.17 |  -19.79
        517 |   588 |     1 |  264.39 |  -19.79
        518 |   589 |     1 |  264.62 |  -19.79
        519 |   590 |     1 |  264.84 |  -19.79
        520 |   591 |     1 |  265.07 |  -19.79
        521 |   592 |     1 |  265.30 |  -19.79
        522 |   593 |     1 |  265.52 |  -19.79
        523 |   594 |     1 |  265.75 |  -19.79
        524 |   595 |     1 |  265.97 |  -19.79
        525 |   596 |     1 |  266.20 |  -19.79
        526 |   597 |     1 |  266.42 |  -19.79
        527 |   598 |     1 |  266.65 |  -19.79
        528 |   599 |     1 |  266.88 |  -19.79
        529 |   600 |     1 |  267.10 |  -19.79
        530 |   601 |     1 |  267.33 |  -19.79
        531 |   602 |     1 |  267.55 |  -19.79
        532 |   603 |     1 |  267.78 |  -19.79
        533 |   604 |     1 |  268.01 |  -19.79
        534 |   605 |     1 |  268.23 |  -19.79
        535 |   606 |     1 |  268.46 |  -19.79
        536 |   607 |     1 |  268.68 |  -19.79
        537 |   608 |     1 |  268.91 |  -19.79
        538 |   609 |     1 |  269.13 |  -19.79
        539 |   610 |     1 |  269.36 |  -19.79
        540 |   611 |     1 |  269.59 |  -19.79
        541 |   612 |     1 |  269.81 |  -19.79
        542 |   613 |     1 |  270.04 |  -19.79
        543 |   614 |     1 |  270.26 |  -19.79
        544 |   615 |     1 |  270.49 |  -19.79
        545 |   616 |     1 |  270.72 |  -19.79
        546 |   617 |     1 |  270.94 |  -19.79
        547 |   618 |     1 |  271.17 |  -19.79
        548 |   619 |     1 |  271.39 |  -19.79
        549 |   620 |     1 |  271.62 |  -19.79
        550 |   621 |     1 |  271.84 |  -19.79
        551 |   622 |     1 |  272.07 |  -19.79
        552 |   623 |     1 |  272.30 |  -19.79
        553 |   624 |     1 |  272.52 |  -19.79
        554 |   625 |     1 |  272.75 |  -19.79
        555 |   626 |     1 |  272.97 |  -19.79
        556 |   627 |     1 |  273.20 |  -19.79
        557 |   628 |     1 |  273.42 |  -19.79
        558 |   629 |     1 |  273.65 |  -19.79
        559 |   630 |     1 |  273.88 |  -19.79
        560 |   631 |     1 |  274.10 |  -19.79
        561 |   632 |     1 |  274.33 |  -19.79
        562 |   633 |     1 |  274.55 |  -19.79
        563 |   634 |     1 |  274.78 |  -19.79
        564 |   635 |     1 |  275.01 |  -19.79
        565 |   636 |     1 |  275.23 |  -19.79
        566 |   637 |     1 |  275.46 |  -19.79
        567 |   638 |     1 |  275.68 |  -19.79
        568 |   639 |     1 |  275.91 |  -19.79
        569 |   640 |     1 |  276.13 |  -19.79
        570 |   641 |     1 |  276.36 |  -19.79
        571 |   642 |     1 |  276.59 |  -19.79
        572 |   643 |     1 |  276.81 |  -19.79
        573 |   644 |     1 |  277.04 |  -19.79
        574 |   645 |     1 |  277.26 |  -19.79
        575 |   646 |     1 |  277.49 |  -19.79
        576 |   647 |     1 |  277.72 |  -19.79
        577 |   648 |     1 |  277.94 |  -19.79
        578 |   649 |     1 |  278.17 |  -19.79
        579 |   650 |     1 |  278.39 |  -19.79
        580 |   651 |     1 |  278.62 |  -19.79
        581 |   652 |     1 |  278.84 |  -19.79
        582 |   653 |     1 |  279.07 |  -19.79
        583 |   654 |     1 |  279.30 |  -19.79
        584 |   655 |     1 |  279.52 |  -19.79
        585 |   656 |     1 |  279.75 |  -19.79
        586 |   657 |     1 |  279.97 |  -19.79
        587 |   658 |     1 |  280.20 |  -19.79
        588 |   659 |     1 |  280.43 |  -19.79
        589 |   660 |     1 |  280.65 |  -19.79
        590 |   661 |     1 |  280.88 |  -19.79
        591 |   662 |     1 |  281.10 |  -19.79
        592 |   663 |     1 |  281.33 |  -19.79
        593 |   664 |     1 |  281.55 |  -19.79
        594 |   665 |     1 |  281.78 |  -19.79
        595 |   666 |     1 |  282.01 |  -19.79
        596 |   667 |     1 |  282.23 |  -19.79
        597 |   668 |     1 |  282.46 |  -19.79
        598 |   669 |     1 |  282.68 |  -19.79
        599 |   670 |     1 |  282.91 |  -19.79
        600 |   671 |     1 |  283.14 |  -19.79
        601 |   672 |     1 |  283.36 |  -19.79
        602 |   673 |     1 |  283.59 |  -19.79
        603 |   674 |     1 |  283.81 |  -19.79
        604 |   675 |     1 |  284.04 |  -19.79
        605 |   676 |     1 |  284.26 |  -19.79
        606 |   677 |     1 |  284.49 |  -19.79
        607 |   678 |     1 |  284.72 |  -19.79
        608 |   679 |     1 |  284.94 |  -19.79
        609 |   680 |     1 |  285.17 |  -19.79
        610 |   681 |     1 |  285.39 |  -19.79
        611 |   682 |     1 |  285.62 |  -19.79
        612 |   683 |     1 |  285.85 |  -19.79
        613 |   684 |     1 |  286.07 |  -19.79
        614 |   685 |     1 |  286.30 |  -19.79
        615 |   686 |     1 |  286.52 |  -19.79
        616 |   687 |     1 |  286.75 |  -19.79
        617 |   688 |     1 |  286.97 |  -19.79
        618 |   689 |     1 |  287.20 |  -19.79
        619 |   690 |     1 |  287.43 |  -19.79
        620 |   691 |     1 |  287.65 |  -19.79
        621 |   692 |     1 |  287.88 |  -19.79
        622 |   693 |     1 |  288.10 |  -19.79
        623 |   694 |     1 |  288.33 |  -19.79
        624 |   695 |     1 |  288.56 |  -19.79
        625 |   696 |     1 |  288.78 |  -19.79
        626 |   697 |     1 |  289.01 |  -19.79
        627 |   698 |     1 |  289.23 |  -19.79
        628 |   699 |     1 |  289.46 |  -19.79
        629 |   699 |     2 |  289.46 |  -19.57
        630 |   699 |     3 |  289.46 |  -19.36
        631 |   699 |     4 |  289.46 |  -19.15
        632 |   699 |     5 |  289.46 |  -18.93
        633 |   699 |     6 |  289.46 |  -18.72
        634 |   699 |     7 |  289.46 |  -18.51
        635 |   699 |     8 |  289.46 |  -18.29
        636 |     1 |    41 |  131.83 |  -11.09
        637 |     1 |    42 |  131.83 |  -10.87
        638 |     1 |    43 |  131.83 |  -10.64
        639 |     1 |    44 |  131.83 |  -10.42
        640 |     1 |    45 |  131.83 |  -10.20
        641 |     1 |    46 |  131.83 |   -9.98
        642 |     1 |    47 |  131.83 |   -9.76
        643 |     1 |    48 |  131.83 |   -9.53
        644 |     1 |    49 |  131.83 |   -9.31
        645 |     1 |    50 |  131.83 |   -9.09
        646 |     1 |    51 |  131.83 |   -8.86
        647 |     1 |    52 |  131.83 |   -8.64
        648 |     1 |    53 |  131.83 |   -8.42
        649 |     1 |    54 |  131.83 |   -8.19
        650 |     1 |    55 |  131.83 |   -7.97
        651 |     1 |    56 |  131.83 |   -7.75
        652 |     1 |    57 |  131.83 |   -7.52
        653 |     1 |    58 |  131.83 |   -7.30
        654 |     1 |    59 |  131.83 |   -7.08
        655 |     1 |    60 |  131.83 |   -6.85
        656 |     1 |    61 |  131.83 |   -6.63
        657 |     1 |    62 |  131.83 |   -6.40
        658 |     1 |    63 |  131.83 |   -6.18
        659 |     1 |    64 |  131.83 |   -5.95
        660 |     1 |    65 |  131.83 |   -5.73
        661 |     1 |    66 |  131.83 |   -5.50
        662 |     1 |    67 |  131.83 |   -5.28
        663 |     1 |    68 |  131.83 |   -5.05
        664 |     1 |    69 |  131.83 |   -4.83
        665 |     1 |    70 |  131.83 |   -4.60
        666 |     1 |    71 |  131.83 |   -4.38
        667 |     1 |    72 |  131.83 |   -4.15
        668 |     1 |    73 |  131.83 |   -3.93
        669 |     1 |    74 |  131.83 |   -3.70
        670 |     1 |    75 |  131.83 |   -3.48
        671 |     1 |    76 |  131.83 |   -3.25
        672 |     1 |    77 |  131.83 |   -3.03
        673 |     1 |    89 |  131.83 |   -0.32
        674 |     1 |    90 |  131.83 |   -0.09
        675 |     1 |    91 |  131.83 |    0.13
        676 |     1 |    92 |  131.83 |    0.36
        677 |     1 |    93 |  131.83 |    0.58
        678 |     1 |    94 |  131.83 |    0.81
        679 |     1 |    95 |  131.83 |    1.04
        680 |     1 |    96 |  131.83 |    1.26
        681 |     1 |    97 |  131.83 |    1.49
        682 |     1 |    98 |  131.83 |    1.71
        683 |     1 |    99 |  131.83 |    1.94
        684 |     1 |   100 |  131.83 |    2.17
        685 |     1 |   101 |  131.83 |    2.39
        686 |     1 |   102 |  131.83 |    2.62
        687 |     1 |   103 |  131.83 |    2.84
        688 |     1 |   104 |  131.83 |    3.07
        689 |     1 |   105 |  131.83 |    3.29
        690 |     1 |   106 |  131.83 |    3.52
        691 |     1 |   107 |  131.83 |    3.74
        692 |     1 |   108 |  131.83 |    3.97
        693 |     1 |   109 |  131.83 |    4.19
        694 |     1 |   110 |  131.83 |    4.42
        695 |     1 |   111 |  131.83 |    4.64
        696 |     1 |   112 |  131.83 |    4.87
        697 |     1 |   113 |  131.83 |    5.09
        698 |     1 |   114 |  131.83 |    5.32
        699 |     1 |   115 |  131.83 |    5.54
        700 |     1 |   116 |  131.83 |    5.77
        701 |     1 |   117 |  131.83 |    5.99
        702 |     1 |   118 |  131.83 |    6.22
        703 |     1 |   119 |  131.83 |    6.44
        704 |     1 |   120 |  131.83 |    6.67
        705 |     1 |   121 |  131.83 |    6.89
        706 |     1 |   122 |  131.83 |    7.12
        707 |     1 |   123 |  131.83 |    7.34
        708 |     1 |   124 |  131.83 |    7.56
        709 |     1 |   125 |  131.83 |    7.79
        710 |     1 |   126 |  131.83 |    8.01
        711 |     1 |   127 |  131.83 |    8.23
        712 |     1 |   128 |  131.83 |    8.46
        713 |     1 |   129 |  131.83 |    8.68
        714 |     1 |   130 |  131.83 |    8.90
        715 |     1 |   131 |  131.83 |    9.13
        716 |     1 |   132 |  131.83 |    9.35
        717 |     1 |   133 |  131.83 |    9.57
        718 |     2 |   133 |  132.06 |    9.57
        719 |     3 |   133 |  132.29 |    9.57
        720 |     4 |   133 |  132.51 |    9.57
        721 |     5 |   133 |  132.74 |    9.57
        722 |     6 |   133 |  132.96 |    9.57
        723 |     7 |   133 |  133.19 |    9.57
        724 |     8 |   133 |  133.41 |    9.57
        725 |     9 |   133 |  133.64 |    9.57
        726 |    10 |   133 |  133.87 |    9.57
        727 |    11 |   133 |  134.09 |    9.57
        728 |    12 |   133 |  134.32 |    9.57
        729 |    13 |   133 |  134.54 |    9.57
        730 |    14 |   133 |  134.77 |    9.57
        731 |    15 |   133 |  135.00 |    9.57
        732 |    16 |   133 |  135.22 |    9.57
        733 |    17 |   133 |  135.45 |    9.57
        734 |    18 |   133 |  135.67 |    9.57
        735 |    19 |   133 |  135.90 |    9.57
        736 |    20 |   133 |  136.12 |    9.57
        737 |    21 |   133 |  136.35 |    9.57
        738 |    22 |   133 |  136.58 |    9.57
        739 |    23 |   133 |  136.80 |    9.57
        740 |    24 |   133 |  137.03 |    9.57
        741 |    25 |   133 |  137.25 |    9.57
        742 |    26 |   133 |  137.48 |    9.57
        743 |    27 |   133 |  137.71 |    9.57
        744 |    28 |   133 |  137.93 |    9.57
        745 |    29 |   133 |  138.16 |    9.57
        746 |    30 |   133 |  138.38 |    9.57
        747 |    31 |   133 |  138.61 |    9.57
        748 |    32 |   133 |  138.83 |    9.57
        749 |    33 |   133 |  139.06 |    9.57
        750 |    34 |   133 |  139.29 |    9.57
        751 |    35 |   133 |  139.51 |    9.57
        752 |    36 |   133 |  139.74 |    9.57
        753 |    37 |   133 |  139.96 |    9.57
        754 |    38 |   133 |  140.19 |    9.57
        755 |    39 |   133 |  140.41 |    9.57
        756 |    40 |   133 |  140.64 |    9.57
        757 |    41 |   133 |  140.87 |    9.57
        758 |    42 |   133 |  141.09 |    9.57
        759 |    43 |   133 |  141.32 |    9.57
        760 |    44 |   133 |  141.54 |    9.57
        761 |    45 |   133 |  141.77 |    9.57
        762 |    46 |   133 |  142.00 |    9.57
        763 |    47 |   133 |  142.22 |    9.57
        764 |    48 |   133 |  142.45 |    9.57
        765 |    49 |   133 |  142.67 |    9.57
        766 |    50 |   133 |  142.90 |    9.57
        767 |    51 |   133 |  143.12 |    9.57
        768 |    52 |   133 |  143.35 |    9.57
        769 |    53 |   133 |  143.58 |    9.57
        770 |    54 |   133 |  143.80 |    9.57
        771 |    55 |   133 |  144.03 |    9.57
        772 |    56 |   133 |  144.25 |    9.57
        773 |    57 |   133 |  144.48 |    9.57
        774 |    58 |   133 |  144.71 |    9.57
        775 |    59 |   133 |  144.93 |    9.57
        776 |    60 |   133 |  145.16 |    9.57
        777 |    61 |   133 |  145.38 |    9.57
        778 |    62 |   133 |  145.61 |    9.57
        779 |    63 |   133 |  145.83 |    9.57
        780 |    64 |   133 |  146.06 |    9.57
        781 |    65 |   133 |  146.29 |    9.57
        782 |    66 |   133 |  146.51 |    9.57
        783 |    67 |   133 |  146.74 |    9.57
        784 |    68 |   133 |  146.96 |    9.57
        785 |    69 |   133 |  147.19 |    9.57
        786 |    70 |   133 |  147.42 |    9.57
        787 |    71 |   133 |  147.64 |    9.57
        788 |    72 |   133 |  147.87 |    9.57
        789 |    73 |   133 |  148.09 |    9.57
        790 |    74 |   133 |  148.32 |    9.57
        791 |    75 |   133 |  148.54 |    9.57
        792 |    76 |   133 |  148.77 |    9.57
        793 |    77 |   133 |  149.00 |    9.57
        794 |    78 |   133 |  149.22 |    9.57
        795 |    79 |   133 |  149.45 |    9.57
        796 |    80 |   133 |  149.67 |    9.57
        797 |    81 |   133 |  149.90 |    9.57
        798 |    82 |   133 |  150.13 |    9.57
        799 |    83 |   133 |  150.35 |    9.57
        800 |    84 |   133 |  150.58 |    9.57
        801 |    85 |   133 |  150.80 |    9.57
        802 |    86 |   133 |  151.03 |    9.57
        803 |    87 |   133 |  151.25 |    9.57
        804 |    88 |   133 |  151.48 |    9.57
        805 |    89 |   133 |  151.71 |    9.57
        806 |    90 |   133 |  151.93 |    9.57
        807 |    91 |   133 |  152.16 |    9.57
        808 |    92 |   133 |  152.38 |    9.57
        809 |    93 |   133 |  152.61 |    9.57
        810 |    94 |   133 |  152.84 |    9.57
        811 |    95 |   133 |  153.06 |    9.57
        812 |    96 |   133 |  153.29 |    9.57
        813 |    97 |   133 |  153.51 |    9.57
        814 |    98 |   133 |  153.74 |    9.57
        815 |    99 |   133 |  153.96 |    9.57
        816 |   100 |   133 |  154.19 |    9.57
        817 |   101 |   133 |  154.42 |    9.57
        818 |   102 |   133 |  154.64 |    9.57
        819 |   103 |   133 |  154.87 |    9.57
        820 |   104 |   133 |  155.09 |    9.57
        821 |   105 |   133 |  155.32 |    9.57
        822 |   106 |   133 |  155.55 |    9.57
        823 |   107 |   133 |  155.77 |    9.57
        824 |   108 |   133 |  156.00 |    9.57
        825 |   109 |   133 |  156.22 |    9.57
        826 |   110 |   133 |  156.45 |    9.57
        827 |   111 |   133 |  156.67 |    9.57
        828 |   112 |   133 |  156.90 |    9.57
        829 |   113 |   133 |  157.13 |    9.57
        830 |   114 |   133 |  157.35 |    9.57
        831 |   115 |   133 |  157.58 |    9.57
        832 |   116 |   133 |  157.80 |    9.57
        833 |   117 |   133 |  158.03 |    9.57
        834 |   118 |   133 |  158.25 |    9.57
        835 |   119 |   133 |  158.48 |    9.57
        836 |   120 |   133 |  158.71 |    9.57
        837 |   121 |   133 |  158.93 |    9.57
        838 |   122 |   133 |  159.16 |    9.57
        839 |   123 |   133 |  159.38 |    9.57
        840 |   124 |   133 |  159.61 |    9.57
        841 |   125 |   133 |  159.84 |    9.57
        842 |   126 |   133 |  160.06 |    9.57
        843 |   127 |   133 |  160.29 |    9.57
        844 |   128 |   133 |  160.51 |    9.57
        845 |   129 |   133 |  160.74 |    9.57
        846 |   130 |   133 |  160.96 |    9.57
        847 |   131 |   133 |  161.19 |    9.57
        848 |   132 |   133 |  161.42 |    9.57
        849 |   133 |   133 |  161.64 |    9.57
        850 |   134 |   133 |  161.87 |    9.57
        851 |   135 |   133 |  162.09 |    9.57
        852 |   136 |   133 |  162.32 |    9.57
        853 |   137 |   133 |  162.55 |    9.57
        854 |   138 |   133 |  162.77 |    9.57
        855 |   139 |   133 |  163.00 |    9.57
        856 |   140 |   133 |  163.22 |    9.57
        857 |   141 |   133 |  163.45 |    9.57
        858 |   142 |   133 |  163.67 |    9.57
        859 |   143 |   133 |  163.90 |    9.57
        860 |   144 |   133 |  164.13 |    9.57
        861 |   145 |   133 |  164.35 |    9.57
        862 |   146 |   133 |  164.58 |    9.57
        863 |   147 |   133 |  164.80 |    9.57
        864 |   148 |   133 |  165.03 |    9.57
        865 |   149 |   133 |  165.26 |    9.57
        866 |   150 |   133 |  165.48 |    9.57
        867 |   151 |   133 |  165.71 |    9.57
        868 |   152 |   133 |  165.93 |    9.57
        869 |   153 |   133 |  166.16 |    9.57
        870 |   154 |   133 |  166.38 |    9.57
        871 |   155 |   133 |  166.61 |    9.57
        872 |   156 |   133 |  166.84 |    9.57
        873 |   157 |   133 |  167.06 |    9.57
        874 |   158 |   133 |  167.29 |    9.57
        875 |   159 |   133 |  167.51 |    9.57
        876 |   160 |   133 |  167.74 |    9.57
        877 |   161 |   133 |  167.97 |    9.57
        878 |   162 |   133 |  168.19 |    9.57
        879 |   163 |   133 |  168.42 |    9.57
        880 |   164 |   133 |  168.64 |    9.57
        881 |   165 |   133 |  168.87 |    9.57
        882 |   166 |   133 |  169.09 |    9.57
        883 |   167 |   133 |  169.32 |    9.57
        884 |   168 |   133 |  169.55 |    9.57
        885 |   169 |   133 |  169.77 |    9.57
        886 |   170 |   133 |  170.00 |    9.57
        887 |   171 |   133 |  170.22 |    9.57
        888 |   172 |   133 |  170.45 |    9.57
        889 |   173 |   133 |  170.68 |    9.57
        890 |   174 |   133 |  170.90 |    9.57
        891 |   175 |   133 |  171.13 |    9.57
        892 |   176 |   133 |  171.35 |    9.57
        893 |   177 |   133 |  171.58 |    9.57
        894 |   178 |   133 |  171.80 |    9.57
        895 |   179 |   133 |  172.03 |    9.57
        896 |   180 |   133 |  172.26 |    9.57
        897 |   181 |   133 |  172.48 |    9.57
        898 |   182 |   133 |  172.71 |    9.57
        899 |   183 |   133 |  172.93 |    9.57
        900 |   184 |   133 |  173.16 |    9.57
        901 |   185 |   133 |  173.39 |    9.57
        902 |   186 |   133 |  173.61 |    9.57
        903 |   187 |   133 |  173.84 |    9.57
        904 |   188 |   133 |  174.06 |    9.57
        905 |   189 |   133 |  174.29 |    9.57
        906 |   190 |   133 |  174.51 |    9.57
        907 |   191 |   133 |  174.74 |    9.57
        908 |   192 |   133 |  174.97 |    9.57
        909 |   193 |   133 |  175.19 |    9.57
        910 |   194 |   133 |  175.42 |    9.57
        911 |   195 |   133 |  175.64 |    9.57
        912 |   196 |   133 |  175.87 |    9.57
        913 |   197 |   133 |  176.10 |    9.57
        914 |   198 |   133 |  176.32 |    9.57
        915 |   199 |   133 |  176.55 |    9.57
        916 |   200 |   133 |  176.77 |    9.57
        917 |   201 |   133 |  177.00 |    9.57
        918 |   202 |   133 |  177.22 |    9.57
        919 |   203 |   133 |  177.45 |    9.57
        920 |   204 |   133 |  177.68 |    9.57
        921 |   205 |   133 |  177.90 |    9.57
        922 |   206 |   133 |  178.13 |    9.57
        923 |   207 |   133 |  178.35 |    9.57
        924 |   208 |   133 |  178.58 |    9.57
        925 |   209 |   133 |  178.80 |    9.57
        926 |   210 |   133 |  179.03 |    9.57
        927 |   211 |   133 |  179.26 |    9.57
        928 |   212 |   133 |  179.48 |    9.57
        929 |   213 |   133 |  179.71 |    9.57
        930 |   214 |   133 |  179.93 |    9.57
        931 |   215 |   133 |  180.16 |    9.57
        932 |   216 |   133 |  180.39 |    9.57
        933 |   217 |   133 |  180.61 |    9.57
        934 |   218 |   133 |  180.84 |    9.57
        935 |   219 |   133 |  181.06 |    9.57
        936 |   220 |   133 |  181.29 |    9.57
        937 |   221 |   133 |  181.51 |    9.57
        938 |   222 |   133 |  181.74 |    9.57
        939 |   223 |   133 |  181.97 |    9.57
        940 |   224 |   133 |  182.19 |    9.57
        941 |   225 |   133 |  182.42 |    9.57
        942 |   226 |   133 |  182.64 |    9.57
        943 |   227 |   133 |  182.87 |    9.57
        944 |   228 |   133 |  183.10 |    9.57
        945 |   229 |   133 |  183.32 |    9.57
        946 |   230 |   133 |  183.55 |    9.57
        947 |   231 |   133 |  183.77 |    9.57
        948 |   232 |   133 |  184.00 |    9.57
        949 |   233 |   133 |  184.22 |    9.57
        950 |   234 |   133 |  184.45 |    9.57
        951 |   235 |   133 |  184.68 |    9.57
        952 |   236 |   133 |  184.90 |    9.57
        953 |   237 |   133 |  185.13 |    9.57
        954 |   238 |   133 |  185.35 |    9.57
        955 |   239 |   133 |  185.58 |    9.57
        956 |   240 |   133 |  185.81 |    9.57
        957 |   241 |   133 |  186.03 |    9.57
        958 |   242 |   133 |  186.26 |    9.57
        959 |   243 |   133 |  186.48 |    9.57
        960 |   244 |   133 |  186.71 |    9.57
        961 |   245 |   133 |  186.93 |    9.57
        962 |   246 |   133 |  187.16 |    9.57
        963 |   247 |   133 |  187.39 |    9.57
        964 |   248 |   133 |  187.61 |    9.57
        965 |   249 |   133 |  187.84 |    9.57
        966 |   250 |   133 |  188.06 |    9.57
        967 |   251 |   133 |  188.29 |    9.57
        968 |   252 |   133 |  188.52 |    9.57
        969 |   253 |   133 |  188.74 |    9.57
        970 |   254 |   133 |  188.97 |    9.57
        971 |   255 |   133 |  189.19 |    9.57
        972 |   256 |   133 |  189.42 |    9.57
        973 |   257 |   133 |  189.64 |    9.57
        974 |   258 |   133 |  189.87 |    9.57
        975 |   259 |   133 |  190.10 |    9.57
        976 |   260 |   133 |  190.32 |    9.57
        977 |   261 |   133 |  190.55 |    9.57
        978 |   262 |   133 |  190.77 |    9.57
        979 |   263 |   133 |  191.00 |    9.57
        980 |   264 |   133 |  191.23 |    9.57
        981 |   265 |   133 |  191.45 |    9.57
        982 |   266 |   133 |  191.68 |    9.57
        983 |   267 |   133 |  191.90 |    9.57
        984 |   268 |   133 |  192.13 |    9.57
        985 |   269 |   133 |  192.35 |    9.57
        986 |   270 |   133 |  192.58 |    9.57
        987 |   271 |   133 |  192.81 |    9.57
        988 |   272 |   133 |  193.03 |    9.57
        989 |   273 |   133 |  193.26 |    9.57
        990 |   274 |   133 |  193.48 |    9.57
        991 |   275 |   133 |  193.71 |    9.57
        992 |   276 |   133 |  193.94 |    9.57
        993 |   277 |   133 |  194.16 |    9.57
        994 |   278 |   133 |  194.39 |    9.57
        995 |   279 |   133 |  194.61 |    9.57
        996 |   280 |   133 |  194.84 |    9.57
        997 |   281 |   133 |  195.06 |    9.57
        998 |   282 |   133 |  195.29 |    9.57
        999 |   283 |   133 |  195.52 |    9.57
       1000 |   284 |   133 |  195.74 |    9.57
       1001 |   285 |   133 |  195.97 |    9.57
       1002 |   286 |   133 |  196.19 |    9.57
       1003 |   287 |   133 |  196.42 |    9.57
       1004 |   288 |   133 |  196.64 |    9.57
       1005 |   289 |   133 |  196.87 |    9.57
       1006 |   290 |   133 |  197.10 |    9.57
       1007 |   291 |   133 |  197.32 |    9.57
       1008 |   292 |   133 |  197.55 |    9.57
       1009 |   293 |   133 |  197.77 |    9.57
       1010 |   294 |   133 |  198.00 |    9.57
       1011 |   295 |   133 |  198.23 |    9.57
       1012 |   296 |   133 |  198.45 |    9.57
       1013 |   297 |   133 |  198.68 |    9.57
       1014 |   298 |   133 |  198.90 |    9.57
       1015 |   299 |   133 |  199.13 |    9.57
       1016 |   300 |   133 |  199.35 |    9.57
       1017 |   301 |   133 |  199.58 |    9.57
       1018 |   302 |   133 |  199.81 |    9.57
       1019 |   303 |   133 |  200.03 |    9.57
       1020 |   304 |   133 |  200.26 |    9.57
       1021 |   305 |   133 |  200.48 |    9.57
       1022 |   306 |   133 |  200.71 |    9.57
       1023 |   307 |   133 |  200.94 |    9.57
       1024 |   308 |   133 |  201.16 |    9.57
       1025 |   309 |   133 |  201.39 |    9.57
       1026 |   310 |   133 |  201.61 |    9.57
       1027 |   311 |   133 |  201.84 |    9.57
       1028 |   312 |   133 |  202.06 |    9.57
       1029 |   313 |   133 |  202.29 |    9.57
       1030 |   314 |   133 |  202.52 |    9.57
       1031 |   315 |   133 |  202.74 |    9.57
       1032 |   316 |   133 |  202.97 |    9.57
       1033 |   317 |   133 |  203.19 |    9.57
       1034 |   318 |   133 |  203.42 |    9.57
       1035 |   319 |   133 |  203.65 |    9.57
       1036 |   320 |   133 |  203.87 |    9.57
       1037 |   321 |   133 |  204.10 |    9.57
       1038 |   322 |   133 |  204.32 |    9.57
       1039 |   323 |   133 |  204.55 |    9.57
       1040 |   324 |   133 |  204.77 |    9.57
       1041 |   325 |   133 |  205.00 |    9.57
       1042 |   326 |   133 |  205.23 |    9.57
       1043 |   327 |   133 |  205.45 |    9.57
       1044 |   328 |   133 |  205.68 |    9.57
       1045 |   329 |   133 |  205.90 |    9.57
       1046 |   330 |   133 |  206.13 |    9.57
       1047 |   331 |   133 |  206.36 |    9.57
       1048 |   332 |   133 |  206.58 |    9.57
       1049 |   333 |   133 |  206.81 |    9.57
       1050 |   334 |   133 |  207.03 |    9.57
       1051 |   335 |   133 |  207.26 |    9.57
       1052 |   336 |   133 |  207.48 |    9.57
       1053 |   337 |   133 |  207.71 |    9.57
       1054 |   338 |   133 |  207.94 |    9.57
       1055 |   339 |   133 |  208.16 |    9.57
       1056 |   340 |   133 |  208.39 |    9.57
       1057 |   341 |   133 |  208.61 |    9.57
       1058 |   342 |   133 |  208.84 |    9.57
       1059 |   343 |   133 |  209.07 |    9.57
       1060 |   344 |   133 |  209.29 |    9.57
       1061 |   345 |   133 |  209.52 |    9.57
       1062 |   346 |   133 |  209.74 |    9.57
       1063 |   347 |   133 |  209.97 |    9.57
       1064 |   348 |   133 |  210.19 |    9.57
       1065 |   349 |   133 |  210.42 |    9.57
       1066 |   350 |   133 |  210.65 |    9.57
       1067 |   351 |   133 |  210.87 |    9.57
       1068 |   352 |   133 |  211.10 |    9.57
       1069 |   353 |   133 |  211.32 |    9.57
       1070 |   354 |   133 |  211.55 |    9.57
       1071 |   355 |   133 |  211.78 |    9.57
       1072 |   356 |   133 |  212.00 |    9.57
       1073 |   357 |   133 |  212.23 |    9.57
       1074 |   358 |   133 |  212.45 |    9.57
       1075 |   359 |   133 |  212.68 |    9.57
       1076 |   360 |   133 |  212.90 |    9.57
       1077 |   361 |   133 |  213.13 |    9.57
       1078 |   362 |   133 |  213.36 |    9.57
       1079 |   363 |   133 |  213.58 |    9.57
       1080 |   364 |   133 |  213.81 |    9.57
       1081 |   365 |   133 |  214.03 |    9.57
       1082 |   366 |   133 |  214.26 |    9.57
       1083 |   367 |   133 |  214.49 |    9.57
       1084 |   368 |   133 |  214.71 |    9.57
       1085 |   369 |   133 |  214.94 |    9.57
       1086 |   370 |   133 |  215.16 |    9.57
       1087 |   371 |   133 |  215.39 |    9.57
       1088 |   372 |   133 |  215.61 |    9.57
       1089 |   373 |   133 |  215.84 |    9.57
       1090 |   374 |   133 |  216.07 |    9.57
       1091 |   375 |   133 |  216.29 |    9.57
       1092 |   376 |   133 |  216.52 |    9.57
       1093 |   377 |   133 |  216.74 |    9.57
       1094 |   378 |   133 |  216.97 |    9.57
       1095 |   379 |   133 |  217.19 |    9.57
       1096 |   380 |   133 |  217.42 |    9.57
       1097 |   381 |   133 |  217.65 |    9.57
       1098 |   382 |   133 |  217.87 |    9.57
       1099 |   383 |   133 |  218.10 |    9.57
       1100 |   384 |   133 |  218.32 |    9.57
       1101 |   385 |   133 |  218.55 |    9.57
       1102 |   386 |   133 |  218.78 |    9.57
       1103 |   387 |   133 |  219.00 |    9.57
       1104 |   388 |   133 |  219.23 |    9.57
       1105 |   389 |   133 |  219.45 |    9.57
       1106 |   390 |   133 |  219.68 |    9.57
       1107 |   391 |   133 |  219.90 |    9.57
       1108 |   392 |   133 |  220.13 |    9.57
       1109 |   393 |   133 |  220.36 |    9.57
       1110 |   394 |   133 |  220.58 |    9.57
       1111 |   395 |   133 |  220.81 |    9.57
       1112 |   396 |   133 |  221.03 |    9.57
       1113 |   397 |   133 |  221.26 |    9.57
       1114 |   398 |   133 |  221.49 |    9.57
       1115 |   399 |   133 |  221.71 |    9.57
       1116 |   400 |   133 |  221.94 |    9.57
       1117 |   401 |   133 |  222.16 |    9.57
       1118 |   402 |   133 |  222.39 |    9.57
       1119 |   403 |   133 |  222.61 |    9.57
       1120 |   404 |   133 |  222.84 |    9.57
       1121 |   405 |   133 |  223.07 |    9.57
       1122 |   406 |   133 |  223.29 |    9.57
       1123 |   407 |   133 |  223.52 |    9.57
       1124 |   408 |   133 |  223.74 |    9.57
       1125 |   409 |   133 |  223.97 |    9.57
       1126 |   410 |   133 |  224.20 |    9.57
       1127 |   411 |   133 |  224.42 |    9.57
       1128 |   412 |   133 |  224.65 |    9.57
       1129 |   413 |   133 |  224.87 |    9.57
       1130 |   414 |   133 |  225.10 |    9.57
       1131 |   415 |   133 |  225.32 |    9.57
       1132 |   416 |   133 |  225.55 |    9.57
       1133 |   417 |   133 |  225.78 |    9.57
       1134 |   418 |   133 |  226.00 |    9.57
       1135 |   419 |   133 |  226.23 |    9.57
       1136 |   420 |   133 |  226.45 |    9.57
       1137 |   421 |   133 |  226.68 |    9.57
       1138 |   422 |   133 |  226.91 |    9.57
       1139 |   423 |   133 |  227.13 |    9.57
       1140 |   424 |   133 |  227.36 |    9.57
       1141 |   425 |   133 |  227.58 |    9.57
       1142 |   426 |   133 |  227.81 |    9.57
       1143 |   427 |   133 |  228.03 |    9.57
       1144 |   428 |   133 |  228.26 |    9.57
       1145 |   429 |   133 |  228.49 |    9.57
       1146 |   430 |   133 |  228.71 |    9.57
       1147 |   431 |   133 |  228.94 |    9.57
       1148 |   432 |   133 |  229.16 |    9.57
       1149 |   433 |   133 |  229.39 |    9.57
       1150 |   434 |   133 |  229.62 |    9.57
       1151 |   435 |   133 |  229.84 |    9.57
       1152 |   436 |   133 |  230.07 |    9.57
       1153 |   437 |   133 |  230.29 |    9.57
       1154 |   438 |   133 |  230.52 |    9.57
       1155 |   439 |   133 |  230.74 |    9.57
       1156 |   440 |   133 |  230.97 |    9.57
       1157 |   441 |   133 |  231.20 |    9.57
       1158 |   442 |   133 |  231.42 |    9.57
       1159 |   443 |   133 |  231.65 |    9.57
       1160 |   444 |   133 |  231.87 |    9.57
       1161 |   445 |   133 |  232.10 |    9.57
       1162 |   446 |   133 |  232.33 |    9.57
       1163 |   447 |   133 |  232.55 |    9.57
       1164 |   448 |   133 |  232.78 |    9.57
       1165 |   449 |   133 |  233.00 |    9.57
       1166 |   450 |   133 |  233.23 |    9.57
       1167 |   451 |   133 |  233.45 |    9.57
       1168 |   452 |   133 |  233.68 |    9.57
       1169 |   453 |   133 |  233.91 |    9.57
       1170 |   454 |   133 |  234.13 |    9.57
       1171 |   455 |   133 |  234.36 |    9.57
       1172 |   456 |   133 |  234.58 |    9.57
       1173 |   457 |   133 |  234.81 |    9.57
       1174 |   458 |   133 |  235.03 |    9.57
       1175 |   459 |   133 |  235.26 |    9.57
       1176 |   460 |   133 |  235.49 |    9.57
       1177 |   461 |   133 |  235.71 |    9.57
       1178 |   462 |   133 |  235.94 |    9.57
       1179 |   463 |   133 |  236.16 |    9.57
       1180 |   464 |   133 |  236.39 |    9.57
       1181 |   465 |   133 |  236.62 |    9.57
       1182 |   466 |   133 |  236.84 |    9.57
       1183 |   467 |   133 |  237.07 |    9.57
       1184 |   468 |   133 |  237.29 |    9.57
       1185 |   469 |   133 |  237.52 |    9.57
       1186 |   470 |   133 |  237.74 |    9.57
       1187 |   471 |   133 |  237.97 |    9.57
       1188 |   472 |   133 |  238.20 |    9.57
       1189 |   473 |   133 |  238.42 |    9.57
       1190 |   474 |   133 |  238.65 |    9.57
       1191 |   475 |   133 |  238.87 |    9.57
       1192 |   476 |   133 |  239.10 |    9.57
       1193 |   477 |   133 |  239.33 |    9.57
       1194 |   478 |   133 |  239.55 |    9.57
       1195 |   479 |   133 |  239.78 |    9.57
       1196 |   480 |   133 |  240.00 |    9.57
       1197 |   481 |   133 |  240.23 |    9.57
       1198 |   482 |   133 |  240.45 |    9.57
       1199 |   483 |   133 |  240.68 |    9.57
       1200 |   484 |   133 |  240.91 |    9.57
       1201 |   485 |   133 |  241.13 |    9.57
       1202 |   486 |   133 |  241.36 |    9.57
       1203 |   487 |   133 |  241.58 |    9.57
       1204 |   488 |   133 |  241.81 |    9.57
       1205 |   489 |   133 |  242.04 |    9.57
       1206 |   490 |   133 |  242.26 |    9.57
       1207 |   491 |   133 |  242.49 |    9.57
       1208 |   492 |   133 |  242.71 |    9.57
       1209 |   493 |   133 |  242.94 |    9.57
       1210 |   494 |   133 |  243.16 |    9.57
       1211 |   495 |   133 |  243.39 |    9.57
       1212 |   496 |   133 |  243.62 |    9.57
       1213 |   497 |   133 |  243.84 |    9.57
       1214 |   498 |   133 |  244.07 |    9.57
       1215 |   499 |   133 |  244.29 |    9.57
       1216 |   500 |   133 |  244.52 |    9.57
       1217 |   501 |   133 |  244.75 |    9.57
       1218 |   502 |   133 |  244.97 |    9.57
       1219 |   503 |   133 |  245.20 |    9.57
       1220 |   504 |   133 |  245.42 |    9.57
       1221 |   505 |   133 |  245.65 |    9.57
       1222 |   506 |   133 |  245.87 |    9.57
       1223 |   507 |   133 |  246.10 |    9.57
       1224 |   508 |   133 |  246.33 |    9.57
       1225 |   509 |   133 |  246.55 |    9.57
       1226 |   510 |   133 |  246.78 |    9.57
       1227 |   511 |   133 |  247.00 |    9.57
       1228 |   512 |   133 |  247.23 |    9.57
       1229 |   513 |   133 |  247.46 |    9.57
       1230 |   514 |   133 |  247.68 |    9.57
       1231 |   515 |   133 |  247.91 |    9.57
       1232 |   516 |   133 |  248.13 |    9.57
       1233 |   517 |   133 |  248.36 |    9.57
       1234 |   518 |   133 |  248.58 |    9.57
       1235 |   519 |   133 |  248.81 |    9.57
       1236 |   520 |   133 |  249.04 |    9.57
       1237 |   521 |   133 |  249.26 |    9.57
       1238 |   522 |   133 |  249.49 |    9.57
       1239 |   523 |   133 |  249.71 |    9.57
       1240 |   524 |   133 |  249.94 |    9.57
       1241 |   525 |   133 |  250.17 |    9.57
       1242 |   526 |   133 |  250.39 |    9.57
       1243 |   527 |   133 |  250.62 |    9.57
       1244 |   528 |   133 |  250.84 |    9.57
       1245 |   529 |   133 |  251.07 |    9.57
       1246 |   530 |   133 |  251.29 |    9.57
       1247 |   531 |   133 |  251.52 |    9.57
       1248 |   532 |   133 |  251.75 |    9.57
       1249 |   533 |   133 |  251.97 |    9.57
       1250 |   534 |   133 |  252.20 |    9.57
       1251 |   535 |   133 |  252.42 |    9.57
       1252 |   536 |   133 |  252.65 |    9.57
       1253 |   537 |   133 |  252.88 |    9.57
       1254 |   538 |   133 |  253.10 |    9.57
       1255 |   539 |   133 |  253.33 |    9.57
       1256 |   540 |   133 |  253.55 |    9.57
       1257 |   541 |   133 |  253.78 |    9.57
       1258 |   542 |   133 |  254.00 |    9.57
       1259 |   543 |   133 |  254.23 |    9.57
       1260 |   544 |   133 |  254.46 |    9.57
       1261 |   545 |   133 |  254.68 |    9.57
       1262 |   546 |   133 |  254.91 |    9.57
       1263 |   547 |   133 |  255.13 |    9.57
       1264 |   548 |   133 |  255.36 |    9.57
       1265 |   549 |   133 |  255.58 |    9.57
       1266 |   550 |   133 |  255.81 |    9.57
       1267 |   551 |   133 |  256.04 |    9.57
       1268 |   552 |   133 |  256.26 |    9.57
       1269 |   553 |   133 |  256.49 |    9.57
       1270 |   554 |   133 |  256.71 |    9.57
       1271 |   555 |   133 |  256.94 |    9.57
       1272 |   556 |   133 |  257.17 |    9.57
       1273 |   557 |   133 |  257.39 |    9.57
       1274 |   558 |   133 |  257.62 |    9.57
       1275 |   559 |   133 |  257.84 |    9.57
       1276 |   560 |   133 |  258.07 |    9.57
       1277 |   561 |   133 |  258.29 |    9.57
       1278 |   562 |   133 |  258.52 |    9.57
       1279 |   563 |   133 |  258.75 |    9.57
       1280 |   564 |   133 |  258.97 |    9.57
       1281 |   565 |   133 |  259.20 |    9.57
       1282 |   566 |   133 |  259.42 |    9.57
       1283 |   567 |   133 |  259.65 |    9.57
       1284 |   568 |   133 |  259.88 |    9.57
       1285 |   569 |   133 |  260.10 |    9.57
       1286 |   570 |   133 |  260.33 |    9.57
       1287 |   571 |   133 |  260.55 |    9.57
       1288 |   572 |   133 |  260.78 |    9.57
       1289 |   573 |   133 |  261.00 |    9.57
       1290 |   574 |   133 |  261.23 |    9.57
       1291 |   575 |   133 |  261.46 |    9.57
       1292 |   576 |   133 |  261.68 |    9.57
       1293 |   577 |   133 |  261.91 |    9.57
       1294 |   578 |   133 |  262.13 |    9.57
       1295 |   579 |   133 |  262.36 |    9.57
       1296 |   580 |   133 |  262.59 |    9.57
       1297 |   581 |   133 |  262.81 |    9.57
       1298 |   582 |   133 |  263.04 |    9.57
       1299 |   583 |   133 |  263.26 |    9.57
       1300 |   584 |   133 |  263.49 |    9.57
       1301 |   585 |   133 |  263.71 |    9.57
       1302 |   586 |   133 |  263.94 |    9.57
       1303 |   587 |   133 |  264.17 |    9.57
       1304 |   588 |   133 |  264.39 |    9.57
       1305 |   589 |   133 |  264.62 |    9.57
       1306 |   590 |   133 |  264.84 |    9.57
       1307 |   591 |   133 |  265.07 |    9.57
       1308 |   592 |   133 |  265.30 |    9.57
       1309 |   593 |   133 |  265.52 |    9.57
       1310 |   594 |   133 |  265.75 |    9.57
       1311 |   595 |   133 |  265.97 |    9.57
       1312 |   596 |   133 |  266.20 |    9.57
       1313 |   597 |   133 |  266.42 |    9.57
       1314 |   598 |   133 |  266.65 |    9.57
       1315 |   599 |   133 |  266.88 |    9.57
       1316 |   600 |   133 |  267.10 |    9.57
       1317 |   601 |   133 |  267.33 |    9.57
       1318 |   602 |   133 |  267.55 |    9.57
       1319 |   603 |   133 |  267.78 |    9.57
       1320 |   604 |   133 |  268.01 |    9.57
       1321 |   605 |   133 |  268.23 |    9.57
       1322 |   606 |   133 |  268.46 |    9.57
       1323 |   607 |   133 |  268.68 |    9.57
       1324 |   608 |   133 |  268.91 |    9.57
       1325 |   609 |   133 |  269.13 |    9.57
       1326 |   610 |   133 |  269.36 |    9.57
       1327 |   611 |   133 |  269.59 |    9.57
       1328 |   612 |   133 |  269.81 |    9.57
       1329 |   613 |   133 |  270.04 |    9.57
       1330 |   614 |   133 |  270.26 |    9.57
       1331 |   615 |   133 |  270.49 |    9.57
       1332 |   616 |   133 |  270.72 |    9.57
       1333 |   617 |   133 |  270.94 |    9.57
       1334 |   618 |   133 |  271.17 |    9.57
       1335 |   619 |   133 |  271.39 |    9.57
       1336 |   620 |   133 |  271.62 |    9.57
       1337 |   621 |   133 |  271.84 |    9.57
       1338 |   622 |   133 |  272.07 |    9.57
       1339 |   623 |   133 |  272.30 |    9.57
       1340 |   624 |   133 |  272.52 |    9.57
       1341 |   625 |   133 |  272.75 |    9.57
       1342 |   626 |   133 |  272.97 |    9.57
       1343 |   627 |   133 |  273.20 |    9.57
       1344 |   628 |   133 |  273.42 |    9.57
       1345 |   629 |   133 |  273.65 |    9.57
       1346 |   630 |   133 |  273.88 |    9.57
       1347 |   631 |   133 |  274.10 |    9.57
       1348 |   632 |   133 |  274.33 |    9.57
       1349 |   633 |   133 |  274.55 |    9.57
       1350 |   634 |   133 |  274.78 |    9.57
       1351 |   635 |   133 |  275.01 |    9.57
       1352 |   636 |   133 |  275.23 |    9.57

  Excluded points : 
 --------------------------------------------------
       No excluded points.


  Status map, printed in     9 part(s) 
 -----------------------------------

   2 2 2 2 2 2 2 2 2 2 2 2 2 2 2 2 2 2 2 2 2 2 2 2 2 2 2 2 2 2 2 2 2 2 2 2 2 2 2 2 2 2 2 2 2 2 2 2 2 2 2 2 2 2 2 2 2 2 2 2 2 2 2 2 2 2 2 2 2 2 2 2 2 2 2 2 2 2
   2 1 1 1 1 1 1 1 1 1 1 1 1 1 1 1 1 1 1 1 1 1 1 1 1 1 1 1 1 1 1 1 1 1 1 1 1 1 1 1 1 1 1 1 1 1 1 1 1 1 1 1 1 1 1 1 1 1 1 1 1 1 1 1 1 1 1 1 1 1 1 1 1 1 1 1 1 1
   2 1 1 1 1 1 1 1 1 1 1 1 1 1 1 1 1 1 1 1 1 1 1 1 1 1 1 1 1 1 1 1 1 1 1 1 1 1 1 1 1 1 1 1 1 1 1 1 1 1 1 1 1 1 1 1 1 1 1 1 1 1 1 1 1 1 1 1 1 1 1 1 1 1 1 1 1 1
   2 1 1 1 1 1 1 1 1 1 1 1 1 1 1 1 1 1 1 1 1 1 1 1 1 1 1 1 1 1 1 1 1 1 1 1 1 1 1 1 1 1 1 1 1 1 1 1 1 1 1 1 1 1 1 1 1 1 1 1 1 1 1 1 1 1 1 1 1 1 1 1 1 1 1 1 1 1
   2 1 1 1 1 1 1 1 1 1 1 1 1 1 1 1 1 1 1 1 1 1 1 1 1 1 1 1 1 1 1 1 1 1 1 1 1 1 1 1 1 1 1 1 1 1 1 1 1 1 1 1 1 1 1 1 1 1 1 1 1 1 1 1 1 1 1 1 1 1 1 1 1 1 1 1 1 1
   2 1 1 1 1 1 1 1 1 1 1 1 1 1 1 1 1 1 1 1 1 1 1 1 1 1 1 1 1 1 1 1 1 1 1 1 1 1 1 1 1 1 1 1 1 1 1 1 1 1 1 1 1 1 1 1 1 1 1 1 1 1 1 1 1 1 1 1 1 1 1 1 1 1 1 1 1 1
   2 1 1 1 1 1 1 1 1 1 1 1 1 1 1 1 1 1 1 1 1 1 1 1 1 1 1 1 1 1 1 1 1 1 1 1 1 1 1 1 1 1 1 1 1 1 1 1 1 1 1 1 1 1 1 1 1 1 1 1 1 1 1 1 1 1 1 1 1 1 1 1 1 1 1 1 1 1
   2 1 1 1 1 1 1 1 1 1 1 1 1 1 1 1 1 1 1 1 1 1 1 1 1 1 1 1 1 1 1 1 1 1 1 1 1 1 1 1 1 1 1 1 1 1 1 1 1 1 1 1 1 1 1 1 1 1 1 1 1 1 1 1 1 1 1 1 1 1 1 1 1 1 1 1 1 1
   2 1 1 1 1 1 1 1 1 1 1 1 1 1 1 1 1 1 1 1 1 1 1 1 1 1 1 1 1 1 1 1 1 1 1 1 1 1 1 1 1 1 1 1 1 1 1 1 1 1 1 1 1 1 1 1 1 1 1 1 1 1 1 1 1 1 1 1 1 1 1 1 1 1 1 1 1 1
   2 1 1 1 1 1 1 1 1 1 1 1 1 1 1 1 1 1 1 1 1 1 1 1 1 1 1 1 1 1 1 1 1 1 1 1 1 1 1 1 1 1 1 1 1 1 1 1 1 1 1 1 1 1 1 1 1 1 1 1 1 1 1 1 1 1 1 1 1 1 1 1 1 1 1 1 1 1
   2 1 1 1 1 1 1 1 1 1 1 1 1 1 1 1 1 1 1 1 1 1 1 1 1 1 1 1 1 1 1 1 1 1 1 1 1 1 1 1 1 1 1 1 1 1 1 1 1 1 1 1 1 1 1 1 1 1 1 1 1 1 1 1 1 1 1 1 1 1 1 1 1 1 1 1 1 1
   2 1 1 1 1 1 1 1 1 1 1 1 1 1 1 1 1 1 1 1 1 1 1 1 1 1 1 1 1 1 1 1 1 1 1 1 1 1 1 1 1 1 1 1 1 1 1 1 1 1 1 1 1 1 1 1 1 1 1 1 1 1 1 1 1 1 1 1 1 1 1 1 1 1 1 1 1 1
   2 1 1 1 1 1 1 1 1 1 1 1 1 1 1 1 1 1 1 1 1 1 1 1 1 1 1 1 1 1 1 1 1 1 1 1 1 1 1 1 1 1 1 1 1 1 1 1 1 1 1 1 1 1 1 1 1 1 1 1 1 1 1 1 1 1 1 1 1 1 1 1 1 1 1 1 1 1
   2 1 1 1 1 1 1 1 1 1 1 1 1 1 1 1 1 1 1 1 1 1 1 1 1 1 1 1 1 1 1 1 1 1 1 1 1 1 1 1 1 1 1 1 1 1 1 1 1 1 1 1 1 1 1 1 1 1 1 1 1 1 1 1 1 1 1 1 1 1 1 1 1 1 1 1 1 1
   2 1 1 1 1 1 1 1 1 1 1 1 1 1 1 1 1 1 1 1 1 1 1 1 1 1 1 1 1 1 1 1 1 1 1 1 1 1 1 1 1 1 1 1 1 1 1 1 1 1 1 1 1 1 1 1 1 1 1 1 1 1 1 1 1 1 1 1 1 1 1 1 1 1 1 1 1 1
   2 1 1 1 1 1 1 1 1 1 1 1 1 1 1 1 1 1 1 1 1 1 1 1 1 1 1 1 1 1 1 1 1 1 1 1 1 1 1 1 1 1 1 1 1 1 1 1 1 1 1 1 1 1 1 1 1 1 1 1 1 1 1 1 1 1 1 1 1 1 1 1 1 1 1 1 1 1
   2 1 1 1 1 1 1 1 1 1 1 1 1 1 1 1 1 1 1 1 1 1 1 1 1 1 1 1 1 1 1 1 1 1 1 1 1 1 1 1 1 1 1 1 1 1 1 1 1 1 1 1 1 1 1 1 1 1 1 1 1 1 1 1 1 1 1 1 1 1 1 1 1 1 1 1 1 1
   2 1 1 1 1 1 1 1 1 1 1 1 1 1 1 1 1 1 1 1 1 1 1 1 1 1 1 1 1 1 1 1 1 1 1 1 1 1 1 1 1 1 1 1 1 1 1 1 1 1 1 1 1 1 1 1 1 1 1 1 1 1 1 1 1 1 1 1 1 1 1 1 1 1 1 1 1 1
   2 1 1 1 1 1 1 1 1 1 1 1 1 1 1 1 1 1 1 1 1 1 1 1 1 1 1 1 1 1 1 1 1 1 1 1 1 1 1 1 1 1 1 1 1 1 1 1 1 1 1 1 1 1 1 1 1 1 1 1 1 1 1 1 1 1 1 1 1 1 1 1 1 1 1 1 1 1
   2 1 1 1 1 1 1 1 1 1 1 1 1 1 1 1 1 1 1 1 1 1 1 1 1 1 1 1 1 1 1 1 1 1 1 1 1 1 1 1 1 1 1 1 1 1 1 1 1 1 1 1 1 1 1 1 1 1 1 1 1 1 1 1 1 1 1 1 1 1 1 1 1 1 1 1 1 1
   2 1 1 1 1 1 1 1 1 1 1 1 1 1 1 1 1 1 1 1 1 1 1 1 1 1 1 1 1 1 1 1 1 1 1 1 1 1 1 1 1 1 1 1 1 1 1 1 1 1 1 1 1 1 1 1 1 1 1 1 1 1 1 1 1 1 1 1 1 1 1 1 1 1 1 1 1 1
   2 1 1 1 1 1 1 1 1 1 1 1 1 1 1 1 1 1 1 1 1 1 1 1 1 1 1 1 1 1 1 1 1 1 1 1 1 1 1 1 1 1 1 1 1 1 1 1 1 1 1 1 1 1 1 1 1 1 1 1 1 1 1 1 1 1 1 1 1 1 1 1 1 1 1 1 1 1
   2 1 1 1 1 1 1 1 1 1 1 1 1 1 1 1 1 1 1 1 1 1 1 1 1 1 1 1 1 1 1 1 1 1 1 1 1 1 1 1 1 1 1 1 1 1 1 1 1 1 1 1 1 1 1 1 1 1 1 1 1 1 1 1 1 1 1 1 1 1 1 1 1 1 1 1 1 1
   2 1 1 1 1 1 1 1 1 1 1 1 1 1 1 1 1 1 1 1 1 1 1 1 1 1 1 1 1 1 1 1 1 1 1 1 1 1 1 1 1 1 1 1 1 1 1 1 1 1 1 1 1 1 1 1 1 1 1 1 1 1 1 1 1 1 1 1 1 1 1 1 1 1 1 1 1 1
   2 1 1 1 1 1 1 1 1 1 1 1 1 1 1 1 1 1 1 1 1 1 1 1 1 1 1 1 1 1 1 1 1 1 1 1 1 1 1 1 1 1 1 1 1 1 1 1 1 1 1 1 1 1 1 1 1 1 1 1 1 1 1 1 1 1 1 1 1 1 1 1 1 1 1 1 1 1
   2 1 1 1 1 1 1 1 1 1 1 1 1 1 1 1 1 1 1 1 1 1 1 1 1 1 1 1 1 1 1 1 1 1 1 1 1 1 1 1 1 1 1 1 1 1 1 1 1 1 1 1 1 1 1 1 1 1 1 1 1 1 1 1 1 1 1 1 1 1 1 1 1 1 1 1 1 1
   2 1 1 1 1 1 1 1 1 1 1 1 1 1 1 1 1 1 1 1 1 1 1 1 1 1 1 1 1 1 1 1 1 1 1 1 1 1 1 1 1 1 1 1 1 1 1 1 1 1 1 1 1 1 1 1 1 1 1 1 1 1 1 1 1 1 1 1 1 1 1 1 1 1 1 1 1 1
[...]
   1 1 1 1 1 1 1 1 1 1 1 1 1 1 1 1 1 1 1 1 1 1 1 1 1 1 1 1 1 0 0 1 1 1 1 1 1 1 1 1 1 0 0 0 0 0 0 0 0 0 0 0 0 0 0 0 0 0 0 0 0 0 0 0 0 0 0 0 0 0 0 0 0 0 0
   1 1 1 1 1 1 1 1 1 1 1 1 1 1 1 1 1 1 1 1 1 1 1 1 1 1 1 1 1 1 1 1 1 1 1 1 1 1 1 1 1 1 0 0 0 0 0 0 0 0 0 0 0 0 0 0 0 0 0 0 0 0 0 0 0 0 0 0 0 0 0 0 0 0 0
   1 1 1 1 1 1 1 1 1 1 1 1 1 1 1 1 1 1 1 1 1 1 1 1 1 1 1 1 1 1 1 1 1 1 1 1 1 1 1 1 1 1 1 0 0 0 0 0 0 0 0 0 0 0 0 0 0 0 0 0 0 0 0 0 0 0 0 0 0 0 0 0 0 0 0
   1 1 1 1 1 1 1 1 1 1 1 1 1 1 1 1 1 1 1 1 1 1 1 1 1 1 1 1 1 1 1 1 1 1 1 1 1 1 1 1 1 1 1 1 0 0 0 0 0 0 0 0 0 0 0 0 0 0 0 0 0 0 0 0 0 0 0 0 0 0 0 0 0 0 0
   1 1 1 1 1 1 1 1 1 1 1 1 1 1 1 1 1 1 1 1 1 1 1 1 1 1 1 1 1 1 1 1 1 1 1 1 1 1 1 1 1 1 1 1 0 0 0 0 0 0 0 0 0 0 0 0 0 0 0 0 0 0 0 0 0 0 0 0 0 0 0 0 0 0 0
   1 1 1 1 1 1 1 1 1 1 1 1 1 1 1 1 1 1 1 1 1 1 1 1 1 1 1 1 1 1 1 1 1 1 1 1 1 1 1 1 1 1 1 1 0 0 0 0 0 0 0 0 0 0 0 0 0 0 0 0 0 0 0 0 0 0 0 0 0 0 0 0 0 0 0
   1 1 1 1 1 1 1 1 1 1 1 1 1 1 1 1 1 1 1 1 1 1 1 1 1 1 1 1 1 1 1 1 1 1 1 1 1 1 1 1 1 1 1 1 0 0 0 0 0 0 0 0 0 0 0 0 0 0 0 0 0 0 0 0 0 0 0 0 0 0 0 0 0 0 0
   1 1 1 1 1 1 1 1 1 1 1 1 1 1 1 1 1 1 1 1 1 1 1 1 1 1 1 1 1 1 1 1 1 1 1 1 1 1 1 1 1 1 1 1 1 0 0 0 0 0 0 0 0 0 0 0 0 0 0 0 0 0 0 0 0 0 0 0 0 0 0 0 0 0 0
   1 1 1 1 1 1 1 1 1 1 1 1 1 1 1 1 1 1 1 1 1 1 1 1 1 1 1 1 1 1 1 1 1 1 1 1 1 1 1 1 1 1 1 1 0 0 0 0 0 0 0 0 0 0 0 0 0 0 0 0 0 0 0 0 0 0 0 0 0 0 0 0 0 0 0
   1 1 1 1 1 1 1 1 1 1 1 1 1 1 1 1 1 1 1 1 1 1 1 1 1 1 1 1 1 1 1 1 1 1 1 1 1 1 1 1 1 1 1 1 0 0 0 0 0 0 0 0 0 0 0 0 0 0 0 0 0 0 0 0 0 0 0 0 0 0 0 0 0 0 0
   1 1 1 1 1 1 1 1 1 1 1 1 1 1 1 1 1 1 1 1 1 1 1 1 1 1 1 1 1 1 1 1 1 1 1 1 1 1 1 1 1 1 1 1 0 0 0 0 0 0 0 0 0 0 0 0 0 0 0 0 0 0 0 0 0 0 0 0 0 0 0 0 0 0 0
   1 1 1 1 1 1 1 1 1 1 1 1 1 1 1 1 1 1 1 1 1 1 1 1 1 1 1 1 1 1 1 1 1 1 1 1 1 1 1 1 1 1 1 1 0 0 0 0 0 0 0 0 0 0 0 0 0 0 0 0 0 0 0 0 0 0 0 0 0 0 0 0 0 0 0
   1 1 1 1 1 1 1 1 1 1 1 1 1 1 1 1 1 1 1 1 1 1 1 1 1 1 1 1 1 1 1 1 1 1 1 1 1 1 1 1 1 1 1 1 0 0 0 0 0 0 0 0 0 0 0 0 0 0 0 0 0 0 0 0 0 0 0 0 0 0 0 0 0 0 0
   1 1 1 1 1 1 1 1 1 1 1 1 1 1 1 1 1 1 1 1 1 1 1 1 1 1 1 1 1 1 1 1 1 1 1 1 1 1 1 1 1 1 1 1 0 0 0 0 0 0 0 0 0 0 0 0 0 0 0 0 0 0 0 0 0 0 0 0 0 0 0 0 0 0 0
   1 1 1 1 1 1 1 1 1 1 1 1 1 1 1 1 1 1 1 1 1 1 1 1 1 1 1 1 1 1 1 1 1 1 1 1 1 1 1 1 1 1 1 1 0 0 0 0 0 0 0 0 0 0 0 0 0 0 0 0 0 0 0 0 0 0 0 0 0 0 0 0 0 0 0
   1 1 1 1 1 1 1 1 1 1 1 1 1 1 1 1 1 1 1 1 1 1 1 1 1 1 1 1 1 1 1 1 1 1 1 1 1 1 1 1 1 1 1 1 0 0 0 0 0 0 0 0 0 0 0 0 0 0 0 0 0 0 0 0 0 0 0 0 0 0 0 0 0 0 0
   1 1 1 1 1 1 1 1 1 1 1 1 1 1 1 1 1 1 1 1 1 1 1 1 1 1 1 1 1 1 1 1 1 1 1 1 1 1 1 1 1 1 1 1 1 0 0 0 0 0 0 0 0 0 0 0 0 0 0 0 0 0 0 0 0 0 0 0 0 0 0 0 0 0 0
   1 1 1 1 1 1 1 1 1 1 1 1 1 1 1 1 1 1 1 1 1 1 1 1 1 1 1 1 1 1 1 1 1 1 1 1 1 1 1 1 1 1 1 1 1 0 0 0 0 0 0 0 0 0 0 0 0 0 0 0 0 0 0 0 0 0 0 0 0 0 0 0 0 0 0
   1 1 1 1 1 1 1 1 1 1 1 1 1 1 1 1 1 1 1 1 1 1 1 1 1 1 1 1 1 1 1 1 1 1 1 1 1 1 1 1 1 1 1 1 0 0 0 0 0 0 0 0 0 0 0 0 0 0 0 0 0 0 0 0 0 0 0 0 0 0 0 0 0 0 0
   1 1 1 1 1 1 1 1 1 1 1 1 1 1 1 1 1 1 1 1 1 1 1 1 1 1 1 1 1 1 1 1 1 1 1 1 1 1 1 1 1 1 1 0 0 0 0 0 0 0 0 0 0 0 0 0 0 0 0 0 0 0 0 0 0 0 0 0 0 0 0 0 0 0 0
   1 1 1 1 1 1 1 1 1 1 1 1 1 1 1 1 1 1 1 1 1 1 1 1 1 1 1 1 1 1 1 1 1 1 1 1 1 1 1 1 1 1 1 0 0 0 0 0 0 0 0 0 0 0 0 0 0 0 0 0 0 0 0 0 0 0 0 0 0 0 0 0 0 0 0
   1 1 1 1 1 1 1 1 1 1 1 1 1 1 1 1 1 1 1 1 1 1 1 1 1 1 1 1 1 1 1 1 1 1 1 1 1 1 1 1 0 0 0 0 0 0 0 0 0 0 0 0 0 0 0 0 0 0 0 0 0 0 0 0 0 0 0 0 0 0 0 0 0 0 0
   1 1 1 1 1 1 1 1 1 1 1 1 1 1 1 1 1 1 1 1 1 1 1 1 1 1 1 1 1 1 1 1 1 1 1 1 1 1 1 0 0 0 0 0 0 0 0 0 0 0 0 0 0 0 0 0 0 0 0 0 0 0 0 0 0 0 0 0 0 0 0 0 0 0 0
   1 1 1 1 1 1 1 1 1 1 1 1 1 1 1 1 1 1 1 1 1 1 1 1 1 1 1 1 1 1 1 1 1 1 1 1 1 1 1 0 0 0 0 0 0 0 0 0 0 0 0 0 0 0 0 0 0 0 0 0 0 0 0 0 0 0 0 0 0 0 0 0 0 0 0
   1 1 1 1 1 1 1 1 1 1 1 1 1 1 1 1 1 1 1 1 1 1 1 1 1 1 1 1 1 1 1 1 1 1 1 1 1 1 1 0 0 0 0 0 0 0 0 0 0 0 0 0 0 0 0 0 0 0 0 0 0 0 0 0 0 0 0 0 0 0 0 0 0 0 0
   1 1 1 1 1 1 1 1 1 1 1 1 1 1 1 1 1 1 1 1 1 1 1 1 1 1 1 1 1 1 1 1 1 1 1 1 1 0 0 0 0 0 0 0 0 0 0 0 0 0 0 0 0 0 0 0 0 0 0 0 0 0 0 0 0 0 0 0 0 0 0 0 0 0 0
   1 1 1 1 1 1 1 1 1 1 1 1 1 1 1 1 1 1 1 1 1 1 1 1 1 1 1 1 1 1 1 1 1 1 1 1 1 1 0 0 0 0 0 0 0 0 0 0 0 0 0 0 0 0 0 0 0 0 0 0 0 0 0 0 0 0 0 0 0 0 0 0 0 0 0
   1 1 1 1 1 1 1 1 1 1 1 1 1 1 1 1 1 1 1 1 1 1 1 1 1 1 1 1 1 1 1 1 1 1 1 1 1 0 0 0 0 0 0 0 0 0 0 0 0 0 0 0 0 0 0 0 0 0 0 0 0 0 0 0 0 0 0 0 0 0 0 0 0 0 0
   1 1 1 1 1 1 1 1 1 1 1 1 1 1 1 1 1 1 1 1 1 1 1 1 1 1 1 1 1 1 1 1 1 1 1 0 0 0 0 0 0 0 0 0 0 0 0 0 0 0 0 0 0 0 0 0 0 0 0 0 0 0 0 0 0 0 0 0 0 0 0 0 0 0 0
   1 1 1 1 1 1 1 1 1 1 1 1 1 1 1 1 1 1 1 1 1 1 1 1 1 1 1 1 1 1 1 1 1 0 0 0 0 0 0 0 0 0 0 0 0 0 0 0 0 0 0 0 0 0 0 0 0 0 0 0 0 0 0 0 0 0 0 0 0 0 0 0 0 0 0
   1 1 1 1 1 1 1 1 1 1 1 1 1 1 1 1 1 1 1 1 1 1 1 1 1 1 1 1 1 1 1 1 0 0 0 0 0 0 0 0 0 0 0 0 0 0 0 0 0 0 0 0 0 0 0 0 0 0 0 0 0 0 0 0 0 0 0 0 0 0 0 0 0 0 0
   1 1 1 1 1 1 1 1 1 1 1 1 1 1 1 1 1 1 1 1 1 1 1 1 1 1 1 1 1 1 1 1 0 0 0 0 0 0 0 0 0 0 0 0 0 0 0 0 0 0 0 0 0 0 0 0 0 0 0 0 0 0 0 0 0 0 0 0 0 0 0 0 0 0 0
   1 1 1 1 1 1 1 1 1 1 1 1 1 1 1 1 1 1 1 1 1 1 1 1 1 1 1 1 1 1 1 1 0 0 0 0 0 0 0 0 0 0 0 0 0 0 0 0 0 0 0 0 0 0 0 0 0 0 0 0 0 0 0 0 0 0 0 0 0 0 0 0 0 0 0
   1 1 1 1 1 1 1 1 1 1 1 1 1 1 1 1 1 1 1 1 1 1 1 1 1 1 1 1 1 1 1 1 0 0 0 0 0 0 0 0 0 0 0 0 0 0 0 0 0 0 0 0 0 0 0 0 0 0 0 0 0 0 0 0 0 0 0 0 0 0 0 0 0 0 0
   1 1 1 1 1 1 1 1 1 1 1 1 1 1 1 1 1 1 1 1 1 1 1 1 1 1 1 1 1 1 1 0 0 0 0 0 0 0 0 0 0 0 0 0 0 0 0 0 0 0 0 0 0 0 0 0 0 0 0 0 0 0 0 0 0 0 0 0 0 0 0 0 0 0 0
   1 1 1 1 1 1 1 1 1 1 1 1 1 1 1 1 1 1 1 1 1 1 1 1 1 1 1 1 1 1 1 0 0 0 0 0 0 0 0 0 0 0 0 0 0 0 0 0 0 0 0 0 0 0 0 0 0 0 0 0 0 0 0 0 0 0 0 0 0 0 0 0 0 0 0
   1 1 1 1 1 1 1 1 1 1 1 1 1 1 1 1 1 1 1 1 1 1 1 1 1 1 1 1 1 1 0 0 0 0 1 0 0 0 0 0 0 0 0 0 0 0 0 0 0 0 0 0 0 0 0 0 0 0 0 0 0 0 0 0 0 0 0 0 0 0 0 0 0 0 0
   1 1 1 1 1 1 1 1 1 1 1 1 1 1 1 1 1 1 1 1 1 1 1 1 1 1 1 1 1 0 0 0 0 0 0 0 0 0 0 0 0 0 0 0 0 0 0 0 0 0 0 0 0 0 0 0 0 0 0 0 0 0 0 0 0 0 0 0 0 0 0 0 0 0 0
   1 1 1 1 1 1 1 1 1 1 1 1 1 1 1 1 1 1 1 1 1 1 1 1 1 1 1 1 1 0 0 0 0 0 0 0 0 0 0 0 0 0 0 0 0 0 0 0 0 0 0 0 0 0 0 0 0 0 0 0 0 0 0 0 0 0 0 0 0 0 0 0 0 0 0
   1 1 1 1 1 1 1 1 1 1 1 1 1 1 1 1 1 1 1 1 1 1 1 1 1 1 1 1 1 0 0 0 0 0 0 0 0 0 0 0 0 0 0 0 0 0 0 0 0 0 0 0 0 0 0 0 0 0 0 0 0 0 0 0 0 0 0 0 0 0 0 0 0 0 0
   1 1 1 1 1 1 1 1 1 1 1 1 1 1 1 1 1 1 1 1 1 1 1 1 1 1 1 1 1 0 0 0 0 0 0 0 0 0 0 0 0 0 0 0 0 0 0 0 0 0 0 0 0 0 0 0 0 0 0 0 0 0 0 0 0 0 0 0 0 0 0 0 0 0 0
   1 1 1 1 1 1 1 1 1 1 1 1 1 1 1 1 1 1 1 1 1 1 1 1 1 1 1 1 1 0 0 0 0 0 0 0 0 0 0 0 0 0 0 0 0 0 0 0 0 0 0 0 0 0 0 0 0 0 0 0 0 0 0 0 0 0 0 0 0 0 0 0 0 0 0
   1 1 1 1 1 1 1 1 1 1 1 1 1 1 1 1 1 1 1 1 1 1 1 1 1 1 1 1 1 0 0 0 0 0 0 0 0 0 0 0 0 0 0 0 0 0 0 0 0 0 0 0 0 0 0 0 0 0 0 0 0 0 0 0 0 0 0 0 0 0 0 0 0 0 0
   1 1 1 1 1 1 1 1 1 1 1 1 1 1 1 1 1 1 1 1 1 1 1 1 1 1 1 1 1 0 0 0 0 0 0 0 0 0 0 0 0 0 0 0 0 0 0 0 0 0 0 0 0 0 0 0 0 0 0 0 0 0 0 0 0 0 0 0 0 0 0 0 0 0 0
   1 1 1 1 1 1 1 1 1 1 1 1 1 1 1 1 1 1 1 1 1 1 1 1 1 1 1 1 1 1 0 0 0 0 0 0 0 0 0 0 0 0 0 0 0 0 0 0 0 0 0 0 0 0 0 0 0 0 0 0 0 0 0 0 0 0 0 0 0 0 0 0 0 0 0
   1 1 1 1 1 1 1 1 1 1 1 1 1 1 1 1 1 1 1 1 1 1 1 1 1 1 1 1 1 1 1 1 0 0 0 0 0 0 0 0 0 0 0 0 0 0 0 0 0 0 0 0 0 0 0 0 0 0 0 0 0 0 0 0 0 0 0 0 0 0 0 0 0 0 0
   1 1 1 1 1 1 1 1 1 1 1 1 1 1 1 1 1 1 1 1 1 1 1 1 1 1 1 1 1 1 1 1 1 0 0 0 0 0 0 0 0 0 0 0 0 0 0 0 0 0 0 0 0 0 0 0 0 0 0 0 0 0 0 0 0 0 0 0 0 0 0 0 0 0 0
   1 1 1 1 1 1 1 1 1 1 1 1 1 1 1 1 1 1 1 1 1 1 1 1 1 1 1 1 1 1 1 1 0 0 0 0 0 0 0 0 0 0 0 0 0 0 0 0 0 0 0 0 0 0 0 0 0 0 0 0 0 0 0 0 0 0 0 0 0 0 0 0 0 0 0
   1 1 1 1 1 1 1 1 1 1 1 1 1 1 1 1 1 1 1 1 1 1 1 1 1 1 1 1 1 1 1 0 0 0 0 0 0 0 0 0 0 0 0 0 0 0 0 0 0 0 0 0 0 0 0 0 0 0 0 0 0 0 0 0 0 0 0 0 0 0 0 0 0 0 0
   1 1 1 1 1 1 1 1 1 1 1 1 1 1 1 1 1 1 1 1 1 1 1 1 1 1 1 1 1 0 0 0 0 0 0 0 0 0 0 0 0 0 0 0 0 0 0 0 0 0 0 0 0 0 0 0 0 0 0 0 0 0 0 0 0 0 0 0 0 0 0 0 0 0 0
   1 1 1 1 1 1 1 1 1 1 1 1 1 1 1 1 1 1 1 1 1 1 1 1 1 1 1 1 1 0 0 0 0 0 0 0 0 0 0 0 0 0 0 0 0 0 0 0 0 0 0 0 0 0 0 0 0 0 0 0 0 0 0 0 0 0 0 0 0 0 0 0 0 0 0
   1 1 1 1 1 1 1 1 1 1 1 1 1 1 1 1 1 1 1 1 1 1 1 1 1 1 1 1 0 0 0 0 0 0 0 0 0 0 0 0 0 0 0 0 0 0 0 0 0 0 0 0 0 0 0 0 0 0 0 0 0 0 0 0 0 0 0 0 0 0 0 0 0 0 0
   1 1 1 1 1 1 1 1 1 1 1 1 1 1 1 1 1 1 1 1 1 1 1 1 1 1 1 0 0 0 0 0 0 0 0 0 0 0 0 0 0 0 0 0 0 0 0 0 0 0 0 0 0 0 0 0 0 0 0 0 0 0 0 0 0 0 0 0 0 0 0 0 0 0 0
   1 1 1 1 1 1 1 1 1 1 1 1 1 1 1 1 1 1 1 1 1 1 1 1 1 1 1 0 0 0 0 0 0 0 0 0 0 0 0 0 0 0 0 0 0 0 0 0 0 0 0 0 0 0 0 0 0 0 0 0 0 0 0 0 0 0 0 0 0 0 0 0 0 0 0
   1 1 1 1 1 1 1 1 1 1 1 1 1 1 1 1 1 1 1 1 1 1 1 1 1 1 1 0 0 0 0 0 0 0 0 0 0 0 0 0 0 0 0 0 0 0 0 0 0 0 0 0 0 0 0 0 0 0 0 0 0 0 0 0 0 0 0 0 0 0 0 0 0 0 0
   1 1 1 1 1 1 1 1 1 1 1 1 1 1 1 1 1 1 1 1 1 1 1 1 1 1 1 1 0 0 0 0 0 0 0 0 0 0 0 0 0 0 0 0 0 0 0 0 0 0 0 0 0 0 0 0 0 0 0 0 0 0 0 0 0 0 0 0 0 0 0 0 0 0 0
   1 1 1 1 1 1 1 1 1 1 1 1 1 1 1 1 1 1 1 1 1 1 1 1 1 1 1 1 0 0 0 0 0 0 0 0 0 0 0 0 0 0 0 0 0 0 0 0 0 0 0 0 0 0 0 0 0 0 0 0 0 0 0 0 0 0 0 0 0 0 0 0 0 0 0
   1 1 1 1 1 1 1 1 1 1 1 1 1 1 1 1 1 1 1 1 1 1 1 1 1 1 1 1 1 0 0 0 0 0 0 0 0 0 0 0 0 0 0 0 0 0 0 0 0 0 0 0 0 0 0 0 0 0 0 0 0 0 0 0 0 0 0 0 0 0 0 0 0 0 0
   1 1 1 1 1 1 1 1 1 1 1 1 1 1 1 1 1 1 1 1 1 1 1 1 1 1 1 1 1 0 0 0 0 0 0 0 0 0 0 0 0 0 0 0 0 0 0 0 0 0 0 0 0 0 0 0 0 0 0 0 0 0 0 0 0 0 0 0 0 0 0 0 0 0 0
   1 1 1 1 1 1 1 1 1 1 1 1 1 1 1 1 1 1 1 1 1 1 1 1 1 1 1 1 0 0 0 0 0 0 0 0 0 0 0 0 0 0 0 0 0 0 0 0 0 0 0 0 0 0 0 0 0 0 0 0 0 0 0 0 0 0 0 0 0 0 0 0 0 0 0
   1 1 1 1 1 1 1 1 1 1 1 1 1 1 1 1 1 1 1 1 1 1 1 1 1 1 1 1 0 0 0 0 0 0 0 0 0 0 0 0 0 0 0 0 0 0 0 0 0 0 0 0 0 0 0 0 0 0 0 0 0 0 0 0 0 0 0 0 0 0 0 0 0 0 0
   1 1 1 1 1 1 1 1 1 1 1 1 1 1 1 1 1 1 1 1 1 1 1 1 1 1 1 1 1 1 0 0 0 0 0 0 0 0 0 0 0 0 0 0 0 0 0 0 0 0 0 0 0 0 0 0 0 0 0 0 0 0 0 0 0 0 0 0 0 0 0 0 0 0 0
   1 1 1 1 1 1 1 1 1 1 1 1 1 1 1 1 1 1 1 1 1 1 1 1 1 1 1 1 1 1 1 1 0 0 0 0 0 0 0 0 0 0 0 0 0 0 0 0 0 0 0 0 0 0 0 0 0 0 0 0 0 0 0 0 0 0 0 0 0 0 0 0 0 0 0
   1 1 1 1 1 1 1 1 1 1 1 1 1 1 1 1 1 1 1 1 1 1 1 1 1 1 1 1 1 1 1 1 1 0 0 0 0 0 0 0 0 0 0 0 0 0 0 0 0 0 0 0 0 0 0 0 0 0 0 0 0 0 0 0 0 0 0 0 0 0 0 0 0 0 0
   1 1 1 1 1 1 1 1 1 1 1 1 1 1 1 1 1 1 1 1 1 1 1 1 1 1 1 1 1 1 1 1 1 1 0 0 0 0 0 0 0 0 0 0 0 0 0 0 0 0 0 0 0 0 0 0 0 0 0 0 0 0 0 0 0 0 0 0 0 0 0 0 0 0 0
   1 1 1 1 1 1 1 1 1 1 1 1 1 1 1 1 1 1 1 1 1 1 1 1 1 1 1 1 1 1 1 1 1 1 0 0 0 0 0 0 0 0 0 0 0 0 0 0 0 0 0 0 0 0 0 0 0 0 0 0 0 0 0 0 0 0 0 0 0 0 0 0 0 0 0
   1 1 1 1 1 1 1 1 1 1 1 1 1 1 1 1 1 1 1 1 1 1 1 1 1 1 1 1 1 1 1 1 1 1 1 0 0 0 0 0 0 0 0 0 0 0 0 0 0 0 0 0 0 0 0 0 0 0 0 0 0 0 0 0 0 0 0 0 0 0 0 0 0 0 0
   1 1 1 1 1 1 1 1 1 1 1 1 1 1 1 1 1 1 1 1 1 1 1 1 1 1 1 1 1 1 1 1 1 1 1 0 0 0 0 0 0 0 0 0 0 0 0 0 0 0 0 0 0 0 0 0 0 0 0 0 0 0 0 0 0 0 0 0 0 0 0 0 0 0 0
   1 1 1 1 1 1 1 1 1 1 1 1 1 1 1 1 1 1 1 1 1 1 1 1 1 1 1 1 1 1 1 1 1 1 1 1 0 0 0 0 0 0 0 0 0 0 0 0 0 0 0 0 0 0 0 0 0 0 0 0 0 0 0 0 0 0 0 0 0 0 0 0 0 0 0
   1 1 1 1 1 1 1 1 1 1 1 1 1 1 1 1 1 1 1 1 1 1 1 1 1 1 1 1 1 1 1 1 1 1 1 1 1 0 0 0 0 0 0 0 0 0 0 0 0 0 0 0 0 0 0 0 0 0 0 0 0 0 0 0 0 0 0 0 0 0 0 0 0 0 0
   1 1 1 1 1 1 1 1 1 1 1 1 1 1 1 1 1 1 1 1 1 1 1 1 1 1 1 1 1 1 1 1 1 1 1 1 1 1 0 0 0 0 0 0 0 0 0 0 0 0 0 0 0 0 0 0 0 0 0 0 0 0 0 0 0 0 0 0 0 0 0 0 0 0 0
   1 1 1 1 1 1 1 1 1 1 1 1 1 1 1 1 1 1 1 1 1 1 1 1 1 1 1 1 1 1 1 1 1 1 1 1 1 1 0 0 0 0 0 0 0 0 0 0 0 0 0 0 0 0 0 0 0 0 0 0 0 0 0 0 0 0 0 0 0 0 0 0 0 0 0
   1 1 1 1 1 1 1 1 1 1 1 1 1 1 1 1 1 1 1 1 1 1 1 1 1 1 1 1 1 1 1 1 1 1 1 1 1 1 0 0 0 0 0 0 0 0 0 0 0 0 0 0 0 0 0 0 0 0 0 0 0 0 0 0 0 0 0 0 0 0 0 0 0 0 0
   1 1 1 1 1 1 1 1 1 1 1 1 1 1 1 1 1 1 1 1 1 1 1 1 1 1 1 1 1 1 1 1 1 1 1 1 1 1 1 0 0 0 0 0 0 0 0 0 0 0 0 0 0 0 0 0 0 0 0 0 0 0 0 0 0 0 0 0 0 0 0 0 0 0 0
   1 1 1 1 1 1 1 1 1 1 1 1 1 1 1 1 1 1 1 1 1 1 1 1 1 1 1 1 1 1 1 1 1 1 1 1 1 1 1 0 0 0 0 0 0 0 0 0 0 0 0 0 0 0 0 0 0 0 0 0 0 0 0 0 0 0 0 0 0 0 0 0 0 0 0
   1 1 1 1 1 1 1 1 1 1 1 1 1 1 1 1 1 1 1 1 1 1 1 1 1 1 1 1 1 1 1 1 1 1 1 1 1 1 1 1 0 0 0 0 0 0 0 0 0 0 0 0 0 0 0 0 0 0 0 0 0 0 0 0 0 0 0 0 0 0 0 0 0 0 0
   1 1 1 1 1 1 1 1 1 1 1 1 1 1 1 1 1 1 1 1 1 1 1 1 1 1 1 1 1 1 1 1 1 1 1 1 1 1 1 1 0 0 0 0 0 0 0 0 0 0 0 0 0 0 0 0 0 0 0 0 0 0 0 0 0 0 0 0 0 0 0 0 0 0 0
   1 1 1 1 1 1 1 1 1 1 1 1 1 1 1 1 1 1 1 1 1 1 1 1 1 1 1 1 1 1 1 1 1 1 1 1 1 1 1 1 1 0 0 0 0 0 0 0 0 0 0 0 0 0 0 0 0 0 0 0 0 0 0 0 0 0 0 0 0 0 0 0 0 0 0
   1 1 1 1 1 1 1 1 1 1 1 1 1 1 1 1 1 1 1 1 1 1 1 1 1 1 1 1 1 1 1 1 1 1 1 1 1 1 1 1 1 0 0 0 0 0 0 0 0 0 0 0 0 0 0 0 0 0 0 0 0 0 0 0 0 0 0 0 0 0 0 0 0 0 0
   1 1 1 1 1 1 1 1 1 1 1 1 1 1 1 1 1 1 1 1 1 1 1 1 1 1 1 1 1 1 1 1 1 1 1 1 1 1 1 1 1 1 0 0 0 0 0 0 0 0 0 0 0 0 0 0 0 0 0 0 0 0 0 0 0 0 0 0 0 0 0 0 0 0 0
   1 1 1 1 1 1 1 1 1 1 1 1 1 1 1 1 1 1 1 1 1 1 1 1 1 1 1 1 1 1 1 1 1 1 1 1 1 1 1 1 1 1 0 0 0 0 0 0 0 0 0 0 0 0 0 0 0 0 0 0 0 0 0 0 0 0 0 0 0 0 0 0 0 0 0
   1 1 1 1 1 1 1 1 1 1 1 1 1 1 1 1 1 1 1 1 1 1 1 1 1 1 1 1 1 1 1 1 1 1 1 1 1 1 1 1 1 1 1 0 0 0 0 0 0 0 0 0 0 0 0 0 0 0 0 0 0 0 0 0 0 0 0 0 0 0 0 0 0 0 0
   1 1 1 1 1 1 1 1 1 1 1 1 1 1 1 1 1 1 1 1 1 1 1 1 1 1 1 1 1 1 1 1 1 1 1 1 1 1 1 1 1 1 1 0 0 0 0 0 0 0 0 0 0 0 0 0 0 0 0 0 0 0 0 0 0 0 0 0 0 0 0 0 0 0 0
   1 1 1 1 1 1 1 1 1 1 1 1 1 1 1 1 1 1 1 1 1 1 1 1 1 1 1 1 1 1 1 1 1 1 1 1 1 1 1 1 1 1 1 0 0 0 0 0 0 0 0 0 0 0 0 0 0 0 0 0 0 0 0 0 0 0 0 0 0 0 0 0 0 0 0
   1 1 1 1 1 1 1 1 1 1 1 1 1 1 1 1 1 1 1 1 1 1 1 1 1 1 1 1 1 1 1 1 1 1 1 1 1 1 1 1 1 1 1 1 1 0 0 0 0 0 0 0 0 0 0 0 0 0 0 0 0 0 0 0 0 0 0 0 0 0 0 0 0 0 0
   1 1 1 1 1 1 1 1 1 1 1 1 1 1 1 1 1 1 1 1 1 1 1 1 1 1 1 1 1 1 1 1 1 1 1 1 1 1 1 1 1 1 1 1 1 0 0 0 0 0 0 0 0 0 0 0 0 0 0 0 0 0 0 0 0 0 0 0 0 0 0 0 0 0 0
   1 1 1 1 1 1 1 1 1 1 1 1 1 1 1 1 1 1 1 1 1 1 1 1 1 1 1 1 1 1 1 1 1 1 1 1 1 1 1 1 1 1 1 1 1 0 0 0 0 0 0 0 0 0 0 0 0 0 0 0 0 0 0 0 0 0 0 0 0 0 0 0 0 0 0
   1 1 1 1 1 1 1 1 1 1 1 1 1 1 1 1 1 1 1 1 1 1 1 1 1 1 1 1 1 1 1 1 1 1 1 1 1 1 1 1 1 1 1 1 1 1 0 0 0 0 0 0 0 0 0 0 0 0 0 0 0 0 0 0 0 0 0 0 0 0 0 0 0 0 0
   1 1 1 1 1 1 1 1 1 1 1 1 1 1 1 1 1 1 1 1 1 1 1 1 1 1 1 1 1 1 1 1 1 1 1 1 1 1 1 1 1 1 1 1 1 1 1 0 0 0 0 0 0 0 0 0 0 0 0 0 0 0 0 0 0 0 0 0 0 0 0 0 0 0 0
   1 1 1 1 1 1 1 1 1 1 1 1 1 1 1 1 1 1 1 1 1 1 1 1 1 1 1 1 1 1 1 1 1 1 1 1 1 1 1 1 1 1 1 1 1 1 1 0 0 0 0 0 0 0 0 0 0 0 0 0 0 0 0 0 0 0 0 0 0 0 0 0 0 0 0
   1 1 1 1 1 1 1 1 1 1 1 1 1 1 1 1 1 1 1 1 1 1 1 1 1 1 1 1 1 1 1 1 1 1 1 1 1 1 1 1 1 1 1 1 1 1 1 1 0 0 0 0 0 0 0 0 0 0 0 0 0 0 0 0 0 0 0 0 0 0 0 0 0 0 0
   1 1 1 1 1 1 1 1 1 1 1 1 1 1 1 1 1 1 1 1 1 1 1 1 1 1 1 1 1 1 1 1 1 1 1 1 1 1 1 1 1 1 1 1 1 1 1 1 0 0 0 0 0 0 0 0 0 0 0 0 0 0 0 0 0 0 0 0 0 0 0 0 0 0 0
   1 1 1 1 1 1 1 1 1 1 1 1 1 1 1 1 1 1 1 1 1 1 1 1 1 1 1 1 1 1 1 1 1 1 1 1 1 1 1 1 1 1 1 1 1 1 1 1 1 0 0 0 0 0 0 0 0 0 0 0 0 0 0 0 0 0 0 0 0 0 0 0 0 0 0
   1 1 1 1 1 1 1 1 1 1 1 1 1 1 1 1 1 1 1 1 1 1 1 1 1 1 1 1 1 1 1 1 1 1 1 1 1 1 1 1 1 1 1 1 1 1 1 1 1 0 0 0 0 0 0 0 0 0 0 0 0 0 0 0 0 0 0 0 0 0 0 0 0 0 0
   1 1 1 1 1 1 1 1 1 1 1 1 1 1 1 1 1 1 1 1 1 1 1 1 1 1 1 1 1 1 1 1 1 1 1 1 1 1 1 1 1 1 1 1 1 1 1 1 1 0 0 0 0 0 0 0 0 0 0 0 0 0 0 0 0 0 0 0 0 0 0 0 0 0 0
   1 1 1 1 1 1 1 1 1 1 1 1 1 1 1 1 1 1 1 1 1 1 1 1 1 1 1 1 1 1 1 1 1 1 1 1 1 1 1 1 1 1 1 1 1 1 1 1 1 0 0 0 0 0 0 0 0 0 0 0 0 0 0 0 0 0 0 0 0 0 0 0 0 0 0
   1 1 1 1 1 1 1 1 1 1 1 1 1 1 1 1 1 1 1 1 1 1 1 1 1 1 1 1 1 1 1 1 1 1 1 1 1 1 1 1 1 1 1 1 1 1 1 1 1 0 0 0 0 0 0 0 0 0 0 0 0 0 0 0 0 0 0 0 0 0 0 0 0 0 0
   1 1 1 1 1 1 1 1 1 1 1 1 1 1 1 1 1 1 1 1 1 1 1 1 1 1 1 1 1 1 1 1 1 1 1 1 1 1 1 1 1 1 1 1 1 1 1 1 1 1 0 0 0 0 0 0 0 0 0 0 0 0 0 0 0 0 0 0 0 0 0 0 0 0 0
   1 1 1 1 1 1 1 1 1 1 1 1 1 1 1 1 1 1 1 1 1 1 1 1 1 1 1 1 1 1 1 1 1 1 1 1 1 1 1 1 1 1 1 1 1 1 1 1 1 1 1 0 0 0 0 0 0 0 0 0 0 0 0 0 0 0 0 0 0 0 0 0 0 0 0
   1 1 1 1 1 1 1 1 1 1 1 1 1 1 1 1 1 1 1 1 1 1 1 1 1 1 1 1 1 1 1 1 1 1 1 1 1 1 1 1 1 1 1 1 1 1 1 1 1 1 1 1 0 0 0 0 0 0 0 0 0 0 0 0 0 0 0 0 0 0 0 0 0 0 0
   1 1 1 1 1 1 1 1 1 1 1 1 1 1 1 1 1 1 1 1 1 1 1 1 1 1 1 1 1 1 1 1 1 1 1 1 1 1 1 1 1 1 1 1 1 1 1 1 1 1 1 1 1 0 0 0 0 0 0 0 0 0 0 0 0 0 0 0 0 0 0 0 0 0 0
   1 1 1 1 1 1 1 1 1 1 1 1 1 1 1 1 1 1 1 1 1 1 1 1 1 1 1 1 1 1 1 1 1 1 1 1 1 1 1 1 1 1 1 1 1 1 1 1 1 1 1 1 1 1 0 0 0 0 0 0 0 0 0 0 0 0 0 0 0 0 0 0 0 0 0
   1 1 1 1 1 1 1 1 1 1 1 1 1 1 1 1 1 1 1 1 1 1 1 1 1 1 1 1 1 1 1 1 1 1 1 1 1 1 1 1 1 1 1 1 1 1 1 1 1 1 1 1 1 1 1 0 0 0 0 0 0 0 0 0 0 0 0 0 0 0 0 0 0 0 0
   1 1 1 1 1 1 1 1 1 1 1 1 1 1 1 1 1 1 1 1 1 1 1 1 1 1 1 1 1 1 1 1 1 1 1 1 1 1 1 1 1 1 1 1 1 1 1 1 1 1 1 1 1 1 1 1 1 0 0 0 0 0 0 0 0 0 0 0 0 0 0 0 0 0 0
   1 1 1 1 1 1 1 1 1 1 1 1 1 1 1 1 1 1 1 1 1 1 1 1 1 1 1 1 1 1 1 1 1 1 1 1 1 1 1 1 1 1 1 1 1 1 1 1 1 1 1 1 1 1 1 1 1 1 1 0 0 0 0 0 0 0 0 0 0 0 0 0 0 0 0
   1 1 1 1 1 1 1 1 1 1 1 1 1 1 1 1 1 1 1 1 1 1 1 1 1 1 1 1 1 1 1 1 1 1 1 1 1 1 1 1 1 1 1 1 1 1 1 1 1 1 1 1 1 1 1 1 1 1 1 1 0 0 0 0 0 0 0 0 0 0 0 0 0 0 0
   1 1 1 1 1 1 1 1 1 1 1 1 1 1 1 1 1 1 1 1 1 1 1 1 1 1 1 1 1 1 1 1 1 1 1 1 1 1 1 1 1 1 1 1 1 1 1 1 1 1 1 1 1 1 1 1 1 1 1 1 1 1 0 0 0 0 0 0 0 0 0 0 0 0 0
   1 1 1 1 1 1 1 1 1 1 1 1 1 1 1 1 1 1 1 1 1 1 1 1 1 1 1 1 1 1 1 1 1 1 1 1 1 1 1 1 1 1 1 1 1 1 1 1 1 1 1 1 1 1 1 1 1 1 1 1 1 1 1 1 0 0 0 0 0 0 0 0 0 0 0
   1 1 1 1 1 1 1 1 1 1 1 1 1 1 1 1 1 1 1 1 1 1 1 1 1 1 1 1 1 1 1 1 1 1 1 1 1 1 1 1 1 1 1 1 1 1 1 1 1 1 1 1 1 1 1 1 1 1 1 1 1 1 1 1 1 1 0 0 0 0 0 0 0 0 0
   1 1 1 1 1 1 1 1 1 1 1 1 1 1 1 1 1 1 1 1 1 1 1 1 1 1 1 1 1 1 1 1 1 1 1 1 1 1 1 1 1 1 1 1 1 1 1 1 1 1 1 1 1 1 1 1 1 1 1 1 1 1 1 1 1 1 1 1 0 0 0 0 0 0 0
   1 1 1 1 1 1 1 1 1 1 1 1 1 1 1 1 1 1 1 1 1 1 1 1 1 1 1 1 1 1 1 1 1 1 1 1 1 1 1 1 1 1 1 1 1 1 1 1 1 1 1 1 1 1 1 1 1 1 1 1 1 1 1 1 1 1 1 1 1 1 0 0 0 0 0
   1 1 1 1 1 1 1 1 1 1 1 1 1 1 1 1 1 1 1 1 1 1 1 1 1 1 1 1 1 1 1 1 1 1 1 1 1 1 1 1 1 1 1 1 1 1 1 1 1 1 1 1 1 1 1 1 1 1 1 1 1 1 1 1 1 1 1 1 1 1 1 0 0 0 0
   1 1 1 1 1 1 1 1 1 1 1 1 1 1 1 1 1 1 1 1 1 1 1 1 1 1 1 1 1 1 1 1 1 1 1 1 1 1 1 1 1 1 1 1 1 1 1 1 1 1 1 1 1 1 1 1 1 1 1 1 1 1 1 1 1 1 1 1 1 1 1 0 0 0 0
   1 1 1 1 1 1 1 1 1 1 1 1 1 1 1 1 1 1 1 1 1 1 1 1 1 1 1 1 1 1 1 1 1 1 1 1 1 1 1 1 1 1 1 1 1 1 1 1 1 1 1 1 1 1 1 1 1 1 1 1 1 1 1 1 1 1 1 1 1 1 1 1 0 0 0
   1 1 1 1 1 1 1 1 1 1 1 1 1 1 1 1 1 1 1 1 1 1 1 1 1 1 1 1 1 1 1 1 1 1 1 1 1 1 1 1 1 1 1 1 1 1 1 1 1 1 1 1 1 1 1 1 1 1 1 1 1 1 1 1 1 1 1 1 1 1 1 1 1 0 0
   1 1 1 1 1 1 1 1 1 1 1 1 1 1 1 1 1 1 1 1 1 1 1 1 1 1 1 1 1 1 1 1 1 1 1 1 1 1 1 1 1 1 1 1 1 1 1 1 1 1 1 1 1 1 1 1 1 1 1 1 1 1 1 1 1 1 1 1 1 1 1 1 1 1 2
   1 1 1 1 1 1 1 1 1 1 1 1 1 1 1 1 1 1 1 1 1 1 1 1 1 1 1 1 1 1 1 1 1 1 1 1 1 1 1 1 1 1 1 1 1 1 1 1 1 1 1 1 1 1 1 1 1 1 1 1 1 1 1 1 1 1 1 1 1 1 1 1 1 1 2
   1 1 1 1 1 1 1 1 1 1 1 1 1 1 1 1 1 1 1 1 1 1 1 1 1 1 1 1 1 1 1 1 1 1 1 1 1 1 1 1 1 1 1 1 1 1 1 1 1 1 1 1 1 1 1 1 1 1 1 1 1 1 1 1 1 1 1 1 1 1 1 1 1 1 2
   1 1 1 1 1 1 1 1 1 1 1 1 1 1 1 1 1 1 1 1 1 1 1 1 1 1 1 1 1 1 1 1 1 1 1 1 1 1 1 1 1 1 1 1 1 1 1 1 1 1 1 1 1 1 1 1 1 1 1 1 1 1 1 1 1 1 1 1 1 1 1 1 1 1 2
   1 1 1 1 1 1 1 1 1 1 1 1 1 1 1 1 1 1 1 1 1 1 1 1 1 1 1 1 1 1 1 1 1 1 1 1 1 1 1 1 1 1 1 1 1 1 1 1 1 1 1 1 1 1 1 1 1 1 1 1 1 1 1 1 1 1 1 1 1 1 1 1 1 1 2
   1 1 1 1 1 1 1 1 1 1 1 1 1 1 1 1 1 1 1 1 1 1 1 1 1 1 1 1 1 1 1 1 1 1 1 1 1 1 1 1 1 1 1 1 1 1 1 1 1 1 1 1 1 1 1 1 1 1 1 1 1 1 1 1 1 1 1 1 1 1 1 1 1 1 2
   1 1 1 1 1 1 1 1 1 1 1 1 1 1 1 1 1 1 1 1 1 1 1 1 1 1 1 1 1 1 1 1 1 1 1 1 1 1 1 1 1 1 1 1 1 1 1 1 1 1 1 1 1 1 1 1 1 1 1 1 1 1 1 1 1 1 1 1 1 1 1 1 1 1 2
   2 2 2 2 2 2 2 2 2 2 2 2 2 2 2 2 2 2 2 2 2 2 2 2 2 2 2 2 2 2 2 2 2 2 2 2 2 2 2 2 2 2 2 2 2 2 2 2 2 2 2 2 2 2 2 2 2 2 2 2 2 2 2 2 2 2 2 2 2 2 2 2 2 2 2
  
  Legend : 
 -----------------------------
    0 : Land point            
    1 : Sea point             
    2 : Active boundary point 
    3 : Excluded point        


  Output boundary points : 
 --------------------------------------------------
       No boundary points.


  Writing model definition file ...

 Filling 3D look-up table for SIN4. please wait
 WAVEWATCH III ST4 TABLE FOR STRESS III  4.12    4.498442      9.4999997E-03
   1.520000             100         200          50  6.0000001E-03
  0.4000000       9.806000    

  Summary grid statistics : 
 --------------------------------------------------
       Number of longitudes      :       699
       Number of latitudes       :       133
       Number of grid points     :     92967
       Number of sea points      :     85380 (91.8%)
       Number of input b. points :      1352
       Number of land points     :      7587
       Number of excluded points :         0


  End of program 
 ========================================
         WAVEWATCH III Grid preprocessor 

